
---------- Begin Simulation Statistics ----------
final_tick                                39319970000                       # Number of ticks from beginning of simulation (restored from checkpoints and never reset)
host_inst_rate                                 162007                       # Simulator instruction rate (inst/s)
host_mem_usage                                 842656                       # Number of bytes of host memory used
host_op_rate                                   272006                       # Simulator op (including micro ops) rate (op/s)
host_seconds                                   358.20                       # Real time elapsed on the host
host_tick_rate                              109770356                       # Simulator tick rate (ticks/s)
sim_freq                                 1000000000000                       # Frequency of simulated ticks
sim_insts                                    58031203                       # Number of instructions simulated
sim_ops                                      97433054                       # Number of ops (including micro ops) simulated
sim_seconds                                  0.039320                       # Number of seconds simulated
sim_ticks                                 39319970000                       # Number of ticks simulated
system.cpu.branchPred.BTBCorrect                    0                       # Number of correct BTB predictions (this stat may not work properly.
system.cpu.branchPred.BTBHitPct              0.000000                       # BTB Hit Percentage
system.cpu.branchPred.BTBHits                       0                       # Number of BTB hits
system.cpu.branchPred.BTBLookups              7175950                       # Number of BTB lookups
system.cpu.branchPred.RASInCorrect                 41                       # Number of incorrect RAS predictions.
system.cpu.branchPred.condIncorrect            396566                       # Number of conditional branches incorrect
system.cpu.branchPred.condPredicted           7370070                       # Number of conditional branches predicted
system.cpu.branchPred.indirectHits            4396794                       # Number of indirect target hits.
system.cpu.branchPred.indirectLookups         7175950                       # Number of indirect predictor lookups.
system.cpu.branchPred.indirectMisses          2779156                       # Number of indirect misses.
system.cpu.branchPred.lookups                 8314058                       # Number of BP lookups
system.cpu.branchPred.usedRAS                  467902                       # Number of times the RAS was used to get a target.
system.cpu.branchPredindirectMispredicted       251977                       # Number of mispredicted indirect branches.
system.cpu.cc_regfile_reads                  36425426                       # number of cc regfile reads
system.cpu.cc_regfile_writes                 27685483                       # number of cc regfile writes
system.cpu.commit.amos                              0                       # Number of atomic instructions committed
system.cpu.commit.branchMispredicts            396618                       # The number of times a branch was mispredicted
system.cpu.commit.branches                    6128620                       # Number of branches committed
system.cpu.commit.bw_lim_events               7121122                       # number cycles where commit BW limit reached
system.cpu.commit.commitNonSpecStalls             342                       # The number of times commit has been forced to stall to communicate backwards
system.cpu.commit.commitSquashedInsts        11785633                       # The number of squashed insts skipped by commit
system.cpu.commit.committedInsts             58031203                       # Number of instructions committed
system.cpu.commit.committedOps               97433054                       # Number of ops (including micro ops) committed
system.cpu.commit.committed_per_cycle::samples     37489664                       # Number of insts commited each cycle
system.cpu.commit.committed_per_cycle::mean     2.598931                       # Number of insts commited each cycle
system.cpu.commit.committed_per_cycle::stdev     3.072480                       # Number of insts commited each cycle
system.cpu.commit.committed_per_cycle::underflows            0      0.00%      0.00% # Number of insts commited each cycle
system.cpu.commit.committed_per_cycle::0     15182627     40.50%     40.50% # Number of insts commited each cycle
system.cpu.commit.committed_per_cycle::1      4511797     12.03%     52.53% # Number of insts commited each cycle
system.cpu.commit.committed_per_cycle::2      4309250     11.49%     64.03% # Number of insts commited each cycle
system.cpu.commit.committed_per_cycle::3      2808716      7.49%     71.52% # Number of insts commited each cycle
system.cpu.commit.committed_per_cycle::4      1117212      2.98%     74.50% # Number of insts commited each cycle
system.cpu.commit.committed_per_cycle::5       602986      1.61%     76.11% # Number of insts commited each cycle
system.cpu.commit.committed_per_cycle::6      1427823      3.81%     79.92% # Number of insts commited each cycle
system.cpu.commit.committed_per_cycle::7       408131      1.09%     81.01% # Number of insts commited each cycle
system.cpu.commit.committed_per_cycle::8      7121122     18.99%    100.00% # Number of insts commited each cycle
system.cpu.commit.committed_per_cycle::overflows            0      0.00%    100.00% # Number of insts commited each cycle
system.cpu.commit.committed_per_cycle::min_value            0                       # Number of insts commited each cycle
system.cpu.commit.committed_per_cycle::max_value            8                       # Number of insts commited each cycle
system.cpu.commit.committed_per_cycle::total     37489664                       # Number of insts commited each cycle
system.cpu.commit.fp_insts                   15257866                       # Number of committed floating point instructions.
system.cpu.commit.function_calls               331381                       # Number of function calls committed.
system.cpu.commit.int_insts                  88475678                       # Number of committed integer instructions.
system.cpu.commit.loads                      29041349                       # Number of loads committed
system.cpu.commit.membars                           0                       # Number of memory barriers committed
system.cpu.commit.op_class_0::No_OpClass       396158      0.41%      0.41% # Class of committed instruction
system.cpu.commit.op_class_0::IntAlu         49791704     51.10%     51.51% # Class of committed instruction
system.cpu.commit.op_class_0::IntMult           41115      0.04%     51.55% # Class of committed instruction
system.cpu.commit.op_class_0::IntDiv           555804      0.57%     52.12% # Class of committed instruction
system.cpu.commit.op_class_0::FloatAdd        4888605      5.02%     57.14% # Class of committed instruction
system.cpu.commit.op_class_0::FloatCmp              0      0.00%     57.14% # Class of committed instruction
system.cpu.commit.op_class_0::FloatCvt            240      0.00%     57.14% # Class of committed instruction
system.cpu.commit.op_class_0::FloatMult             0      0.00%     57.14% # Class of committed instruction
system.cpu.commit.op_class_0::FloatMultAcc            0      0.00%     57.14% # Class of committed instruction
system.cpu.commit.op_class_0::FloatDiv              0      0.00%     57.14% # Class of committed instruction
system.cpu.commit.op_class_0::FloatMisc             0      0.00%     57.14% # Class of committed instruction
system.cpu.commit.op_class_0::FloatSqrt             0      0.00%     57.14% # Class of committed instruction
system.cpu.commit.op_class_0::SimdAdd               0      0.00%     57.14% # Class of committed instruction
system.cpu.commit.op_class_0::SimdAddAcc            0      0.00%     57.14% # Class of committed instruction
system.cpu.commit.op_class_0::SimdAlu           55888      0.06%     57.20% # Class of committed instruction
system.cpu.commit.op_class_0::SimdCmp               0      0.00%     57.20% # Class of committed instruction
system.cpu.commit.op_class_0::SimdCvt           74006      0.08%     57.27% # Class of committed instruction
system.cpu.commit.op_class_0::SimdMisc         211704      0.22%     57.49% # Class of committed instruction
system.cpu.commit.op_class_0::SimdMult              0      0.00%     57.49% # Class of committed instruction
system.cpu.commit.op_class_0::SimdMultAcc            0      0.00%     57.49% # Class of committed instruction
system.cpu.commit.op_class_0::SimdShift             0      0.00%     57.49% # Class of committed instruction
system.cpu.commit.op_class_0::SimdShiftAcc            0      0.00%     57.49% # Class of committed instruction
system.cpu.commit.op_class_0::SimdDiv               0      0.00%     57.49% # Class of committed instruction
system.cpu.commit.op_class_0::SimdSqrt              0      0.00%     57.49% # Class of committed instruction
system.cpu.commit.op_class_0::SimdFloatAdd      1642100      1.69%     59.18% # Class of committed instruction
system.cpu.commit.op_class_0::SimdFloatAlu            0      0.00%     59.18% # Class of committed instruction
system.cpu.commit.op_class_0::SimdFloatCmp            0      0.00%     59.18% # Class of committed instruction
system.cpu.commit.op_class_0::SimdFloatCvt        23310      0.02%     59.20% # Class of committed instruction
system.cpu.commit.op_class_0::SimdFloatDiv        19110      0.02%     59.22% # Class of committed instruction
system.cpu.commit.op_class_0::SimdFloatMisc            0      0.00%     59.22% # Class of committed instruction
system.cpu.commit.op_class_0::SimdFloatMult      1646080      1.69%     60.91% # Class of committed instruction
system.cpu.commit.op_class_0::SimdFloatMultAcc            0      0.00%     60.91% # Class of committed instruction
system.cpu.commit.op_class_0::SimdFloatSqrt            0      0.00%     60.91% # Class of committed instruction
system.cpu.commit.op_class_0::SimdReduceAdd            0      0.00%     60.91% # Class of committed instruction
system.cpu.commit.op_class_0::SimdReduceAlu            0      0.00%     60.91% # Class of committed instruction
system.cpu.commit.op_class_0::SimdReduceCmp            0      0.00%     60.91% # Class of committed instruction
system.cpu.commit.op_class_0::SimdFloatReduceAdd            0      0.00%     60.91% # Class of committed instruction
system.cpu.commit.op_class_0::SimdFloatReduceCmp            0      0.00%     60.91% # Class of committed instruction
system.cpu.commit.op_class_0::SimdAes               0      0.00%     60.91% # Class of committed instruction
system.cpu.commit.op_class_0::SimdAesMix            0      0.00%     60.91% # Class of committed instruction
system.cpu.commit.op_class_0::SimdSha1Hash            0      0.00%     60.91% # Class of committed instruction
system.cpu.commit.op_class_0::SimdSha1Hash2            0      0.00%     60.91% # Class of committed instruction
system.cpu.commit.op_class_0::SimdSha256Hash            0      0.00%     60.91% # Class of committed instruction
system.cpu.commit.op_class_0::SimdSha256Hash2            0      0.00%     60.91% # Class of committed instruction
system.cpu.commit.op_class_0::SimdShaSigma2            0      0.00%     60.91% # Class of committed instruction
system.cpu.commit.op_class_0::SimdShaSigma3            0      0.00%     60.91% # Class of committed instruction
system.cpu.commit.op_class_0::SimdPredAlu            0      0.00%     60.91% # Class of committed instruction
system.cpu.commit.op_class_0::MemRead        24082189     24.72%     85.63% # Class of committed instruction
system.cpu.commit.op_class_0::MemWrite        7400535      7.60%     93.22% # Class of committed instruction
system.cpu.commit.op_class_0::FloatMemRead      4959160      5.09%     98.31% # Class of committed instruction
system.cpu.commit.op_class_0::FloatMemWrite      1645346      1.69%    100.00% # Class of committed instruction
system.cpu.commit.op_class_0::IprAccess             0      0.00%    100.00% # Class of committed instruction
system.cpu.commit.op_class_0::InstPrefetch            0      0.00%    100.00% # Class of committed instruction
system.cpu.commit.op_class_0::total          97433054                       # Class of committed instruction
system.cpu.commit.refs                       38087230                       # Number of memory references committed
system.cpu.commit.swp_count                         0                       # Number of s/w prefetches committed
system.cpu.commit.vec_insts                         0                       # Number of committed Vector instructions.
system.cpu.committedInsts                    58031203                       # Number of Instructions Simulated
system.cpu.committedOps                      97433054                       # Number of Ops (including micro ops) Simulated
system.cpu.cpi                               0.677566                       # CPI: Cycles Per Instruction
system.cpu.cpi_total                         0.677566                       # CPI: Total CPI of All Threads
system.cpu.decode.BlockedCycles              13870790                       # Number of cycles decode is blocked
system.cpu.decode.DecodedInsts              114474446                       # Number of instructions handled by decode
system.cpu.decode.IdleCycles                  8787907                       # Number of cycles decode is idle
system.cpu.decode.RunCycles                  12561520                       # Number of cycles decode is running
system.cpu.decode.SquashCycles                 401166                       # Number of cycles decode is squashing
system.cpu.decode.UnblockCycles               3595207                       # Number of cycles decode is unblocking
system.cpu.dtb.rdAccesses                    29770372                       # TLB accesses on read requests
system.cpu.dtb.rdMisses                         15273                       # TLB misses on read requests
system.cpu.dtb.wrAccesses                     9273804                       # TLB accesses on write requests
system.cpu.dtb.wrMisses                          3099                       # TLB misses on write requests
system.cpu.fetch.Branches                     8314058                       # Number of branches that fetch encountered
system.cpu.fetch.CacheLines                   7586987                       # Number of cache lines fetched
system.cpu.fetch.Cycles                      27620605                       # Number of cycles fetch has run and was not squashing or blocked
system.cpu.fetch.IcacheSquashes                135257                       # Number of outstanding Icache misses that were squashed
system.cpu.fetch.IcacheWaitRetryStallCycles           14                       # Number of stall cycles due to full MSHR
system.cpu.fetch.Insts                       67845183                       # Number of instructions fetch has processed
system.cpu.fetch.MiscStallCycles                   94                       # Number of cycles fetch has spent waiting on interrupts, or bad addresses, or out of MSHRs
system.cpu.fetch.PendingQuiesceStallCycles          430                       # Number of stall cycles due to pending quiesce instructions
system.cpu.fetch.PendingTrapStallCycles           557                       # Number of stall cycles due to pending traps
system.cpu.fetch.SquashCycles                  802332                       # Number of cycles fetch has spent squashing
system.cpu.fetch.branchRate                  0.211446                       # Number of branch fetches per cycle
system.cpu.fetch.icacheStallCycles           11193724                       # Number of cycles fetch is stalled on an Icache miss
system.cpu.fetch.predictedBranches            4864696                       # Number of branches that fetch has predicted taken
system.cpu.fetch.rate                        1.725464                       # Number of inst fetches per cycle
system.cpu.fetch.rateDist::samples           39216590                       # Number of instructions fetched each cycle (Total)
system.cpu.fetch.rateDist::mean              2.987941                       # Number of instructions fetched each cycle (Total)
system.cpu.fetch.rateDist::stdev             3.555319                       # Number of instructions fetched each cycle (Total)
system.cpu.fetch.rateDist::underflows               0      0.00%      0.00% # Number of instructions fetched each cycle (Total)
system.cpu.fetch.rateDist::0                 19769710     50.41%     50.41% # Number of instructions fetched each cycle (Total)
system.cpu.fetch.rateDist::1                  1873422      4.78%     55.19% # Number of instructions fetched each cycle (Total)
system.cpu.fetch.rateDist::2                  2203025      5.62%     60.81% # Number of instructions fetched each cycle (Total)
system.cpu.fetch.rateDist::3                   888329      2.27%     63.07% # Number of instructions fetched each cycle (Total)
system.cpu.fetch.rateDist::4                   564903      1.44%     64.51% # Number of instructions fetched each cycle (Total)
system.cpu.fetch.rateDist::5                  1140471      2.91%     67.42% # Number of instructions fetched each cycle (Total)
system.cpu.fetch.rateDist::6                   518174      1.32%     68.74% # Number of instructions fetched each cycle (Total)
system.cpu.fetch.rateDist::7                   907050      2.31%     71.05% # Number of instructions fetched each cycle (Total)
system.cpu.fetch.rateDist::8                 11351506     28.95%    100.00% # Number of instructions fetched each cycle (Total)
system.cpu.fetch.rateDist::overflows                0      0.00%    100.00% # Number of instructions fetched each cycle (Total)
system.cpu.fetch.rateDist::min_value                0                       # Number of instructions fetched each cycle (Total)
system.cpu.fetch.rateDist::max_value                8                       # Number of instructions fetched each cycle (Total)
system.cpu.fetch.rateDist::total             39216590                       # Number of instructions fetched each cycle (Total)
system.cpu.fp_regfile_reads                  12476546                       # number of floating regfile reads
system.cpu.fp_regfile_writes                 13569806                       # number of floating regfile writes
system.cpu.idleCycles                          103381                       # Total number of cycles that the CPU has spent unscheduled due to idling
system.cpu.iew.branchMispredicts               496404                       # Number of branch mispredicts detected at execute
system.cpu.iew.exec_branches                  6660215                       # Number of branches executed
system.cpu.iew.exec_nop                             0                       # number of nop insts executed
system.cpu.iew.exec_rate                     2.640862                       # Inst execution rate
system.cpu.iew.exec_refs                     39034667                       # number of memory reference insts executed
system.cpu.iew.exec_stores                    9273311                       # Number of stores executed
system.cpu.iew.exec_swp                             0                       # number of swp insts executed
system.cpu.iew.iewBlockCycles                 1364593                       # Number of cycles IEW is blocking
system.cpu.iew.iewDispLoadInsts              30313251                       # Number of dispatched load instructions
system.cpu.iew.iewDispNonSpecInsts              21392                       # Number of dispatched non-speculative instructions
system.cpu.iew.iewDispSquashedInsts             18448                       # Number of squashed instructions skipped by dispatch
system.cpu.iew.iewDispStoreInsts              9729509                       # Number of dispatched store instructions
system.cpu.iew.iewDispatchedInsts           109218399                       # Number of instructions dispatched to IQ
system.cpu.iew.iewExecLoadInsts              29761356                       # Number of load instructions executed
system.cpu.iew.iewExecSquashedInsts            897396                       # Number of squashed instructions skipped in execute
system.cpu.iew.iewExecutedInsts             103838614                       # Number of executed instructions
system.cpu.iew.iewIQFullEvents                   2089                       # Number of times the IQ has become full, causing a stall
system.cpu.iew.iewIdleCycles                        0                       # Number of cycles IEW is idle
system.cpu.iew.iewLSQFullEvents                 63145                       # Number of times the LSQ has become full, causing a stall
system.cpu.iew.iewSquashCycles                 401166                       # Number of cycles IEW is squashing
system.cpu.iew.iewUnblockCycles                 66077                       # Number of cycles IEW is unblocking
system.cpu.iew.lsq.thread0.blockedLoads             0                       # Number of blocked loads due to partial load-store forwarding
system.cpu.iew.lsq.thread0.cacheBlocked          2431                       # Number of times an access to memory failed due to the cache being blocked
system.cpu.iew.lsq.thread0.forwLoads         12487735                       # Number of loads that had data forwarded from stores
system.cpu.iew.lsq.thread0.ignoredResponses        10921                       # Number of memory responses ignored because the instruction is squashed
system.cpu.iew.lsq.thread0.invAddrLoads             0                       # Number of loads ignored due to an invalid address
system.cpu.iew.lsq.thread0.invAddrSwpfs             0                       # Number of software prefetches ignored due to an invalid address
system.cpu.iew.lsq.thread0.memOrderViolation         5854                       # Number of memory ordering violations
system.cpu.iew.lsq.thread0.rescheduledLoads          690                       # Number of loads that were rescheduled
system.cpu.iew.lsq.thread0.squashedLoads      1271902                       # Number of loads squashed
system.cpu.iew.lsq.thread0.squashedStores       683628                       # Number of stores squashed
system.cpu.iew.memOrderViolationEvents           5854                       # Number of memory order violations
system.cpu.iew.predictedNotTakenIncorrect       409658                       # Number of branches that were predicted not taken incorrectly
system.cpu.iew.predictedTakenIncorrect          86746                       # Number of branches that were predicted taken incorrectly
system.cpu.iew.wb_consumers                 105413507                       # num instructions consuming a value
system.cpu.iew.wb_count                     103544595                       # cumulative count of insts written-back
system.cpu.iew.wb_fanout                     0.726256                       # average fanout of values written-back
system.cpu.iew.wb_producers                  76557214                       # num instructions producing a value
system.cpu.iew.wb_rate                       2.633384                       # insts written-back per cycle
system.cpu.iew.wb_sent                      103657023                       # cumulative count of insts sent to commit
system.cpu.int_regfile_reads                157536073                       # number of integer regfile reads
system.cpu.int_regfile_writes                75005912                       # number of integer regfile writes
system.cpu.ipc                               1.475871                       # IPC: Instructions Per Cycle
system.cpu.ipc_total                         1.475871                       # IPC: Total IPC of All Threads
system.cpu.iq.FU_type_0::No_OpClass            571160      0.55%      0.55% # Type of FU issued
system.cpu.iq.FU_type_0::IntAlu              55635905     53.12%     53.67% # Type of FU issued
system.cpu.iq.FU_type_0::IntMult                41474      0.04%     53.71% # Type of FU issued
system.cpu.iq.FU_type_0::IntDiv                589733      0.56%     54.27% # Type of FU issued
system.cpu.iq.FU_type_0::FloatAdd             4914728      4.69%     58.96% # Type of FU issued
system.cpu.iq.FU_type_0::FloatCmp                   0      0.00%     58.96% # Type of FU issued
system.cpu.iq.FU_type_0::FloatCvt                2928      0.00%     58.96% # Type of FU issued
system.cpu.iq.FU_type_0::FloatMult                  0      0.00%     58.96% # Type of FU issued
system.cpu.iq.FU_type_0::FloatMultAcc               0      0.00%     58.96% # Type of FU issued
system.cpu.iq.FU_type_0::FloatDiv                   0      0.00%     58.96% # Type of FU issued
system.cpu.iq.FU_type_0::FloatMisc                  0      0.00%     58.96% # Type of FU issued
system.cpu.iq.FU_type_0::FloatSqrt                  0      0.00%     58.96% # Type of FU issued
system.cpu.iq.FU_type_0::SimdAdd                    0      0.00%     58.96% # Type of FU issued
system.cpu.iq.FU_type_0::SimdAddAcc                 0      0.00%     58.96% # Type of FU issued
system.cpu.iq.FU_type_0::SimdAlu                59013      0.06%     59.02% # Type of FU issued
system.cpu.iq.FU_type_0::SimdCmp                    0      0.00%     59.02% # Type of FU issued
system.cpu.iq.FU_type_0::SimdCvt                78993      0.08%     59.10% # Type of FU issued
system.cpu.iq.FU_type_0::SimdMisc              216464      0.21%     59.30% # Type of FU issued
system.cpu.iq.FU_type_0::SimdMult                   0      0.00%     59.30% # Type of FU issued
system.cpu.iq.FU_type_0::SimdMultAcc                0      0.00%     59.30% # Type of FU issued
system.cpu.iq.FU_type_0::SimdShift                  0      0.00%     59.30% # Type of FU issued
system.cpu.iq.FU_type_0::SimdShiftAcc               0      0.00%     59.30% # Type of FU issued
system.cpu.iq.FU_type_0::SimdDiv                    0      0.00%     59.30% # Type of FU issued
system.cpu.iq.FU_type_0::SimdSqrt                   0      0.00%     59.30% # Type of FU issued
system.cpu.iq.FU_type_0::SimdFloatAdd         1642361      1.57%     60.87% # Type of FU issued
system.cpu.iq.FU_type_0::SimdFloatAlu               0      0.00%     60.87% # Type of FU issued
system.cpu.iq.FU_type_0::SimdFloatCmp               0      0.00%     60.87% # Type of FU issued
system.cpu.iq.FU_type_0::SimdFloatCvt           23452      0.02%     60.89% # Type of FU issued
system.cpu.iq.FU_type_0::SimdFloatDiv           19237      0.02%     60.91% # Type of FU issued
system.cpu.iq.FU_type_0::SimdFloatMisc              0      0.00%     60.91% # Type of FU issued
system.cpu.iq.FU_type_0::SimdFloatMult        1646231      1.57%     62.48% # Type of FU issued
system.cpu.iq.FU_type_0::SimdFloatMultAcc            0      0.00%     62.48% # Type of FU issued
system.cpu.iq.FU_type_0::SimdFloatSqrt              0      0.00%     62.48% # Type of FU issued
system.cpu.iq.FU_type_0::SimdReduceAdd              0      0.00%     62.48% # Type of FU issued
system.cpu.iq.FU_type_0::SimdReduceAlu              0      0.00%     62.48% # Type of FU issued
system.cpu.iq.FU_type_0::SimdReduceCmp              0      0.00%     62.48% # Type of FU issued
system.cpu.iq.FU_type_0::SimdFloatReduceAdd            0      0.00%     62.48% # Type of FU issued
system.cpu.iq.FU_type_0::SimdFloatReduceCmp            0      0.00%     62.48% # Type of FU issued
system.cpu.iq.FU_type_0::SimdAes                    0      0.00%     62.48% # Type of FU issued
system.cpu.iq.FU_type_0::SimdAesMix                 0      0.00%     62.48% # Type of FU issued
system.cpu.iq.FU_type_0::SimdSha1Hash               0      0.00%     62.48% # Type of FU issued
system.cpu.iq.FU_type_0::SimdSha1Hash2              0      0.00%     62.48% # Type of FU issued
system.cpu.iq.FU_type_0::SimdSha256Hash             0      0.00%     62.48% # Type of FU issued
system.cpu.iq.FU_type_0::SimdSha256Hash2            0      0.00%     62.48% # Type of FU issued
system.cpu.iq.FU_type_0::SimdShaSigma2              0      0.00%     62.48% # Type of FU issued
system.cpu.iq.FU_type_0::SimdShaSigma3              0      0.00%     62.48% # Type of FU issued
system.cpu.iq.FU_type_0::SimdPredAlu                0      0.00%     62.48% # Type of FU issued
system.cpu.iq.FU_type_0::MemRead             24949853     23.82%     86.30% # Type of FU issued
system.cpu.iq.FU_type_0::MemWrite             7710287      7.36%     93.67% # Type of FU issued
system.cpu.iq.FU_type_0::FloatMemRead         4987108      4.76%     98.43% # Type of FU issued
system.cpu.iq.FU_type_0::FloatMemWrite        1647083      1.57%    100.00% # Type of FU issued
system.cpu.iq.FU_type_0::IprAccess                  0      0.00%    100.00% # Type of FU issued
system.cpu.iq.FU_type_0::InstPrefetch               0      0.00%    100.00% # Type of FU issued
system.cpu.iq.FU_type_0::total              104736010                       # Type of FU issued
system.cpu.iq.fp_alu_accesses                15333615                       # Number of floating point alu accesses
system.cpu.iq.fp_inst_queue_reads            30665448                       # Number of floating instruction queue reads
system.cpu.iq.fp_inst_queue_wakeup_accesses     15305708                       # Number of floating instruction queue wakeup accesses
system.cpu.iq.fp_inst_queue_writes           15538954                       # Number of floating instruction queue writes
system.cpu.iq.fu_busy_cnt                     1879599                       # FU busy when requested
system.cpu.iq.fu_busy_rate                   0.017946                       # FU busy rate (busy events/executed inst)
system.cpu.iq.fu_full::No_OpClass                   0      0.00%      0.00% # attempts to use FU when none available
system.cpu.iq.fu_full::IntAlu                  851062     45.28%     45.28% # attempts to use FU when none available
system.cpu.iq.fu_full::IntMult                      0      0.00%     45.28% # attempts to use FU when none available
system.cpu.iq.fu_full::IntDiv                       0      0.00%     45.28% # attempts to use FU when none available
system.cpu.iq.fu_full::FloatAdd                     0      0.00%     45.28% # attempts to use FU when none available
system.cpu.iq.fu_full::FloatCmp                     0      0.00%     45.28% # attempts to use FU when none available
system.cpu.iq.fu_full::FloatCvt                    19      0.00%     45.28% # attempts to use FU when none available
system.cpu.iq.fu_full::FloatMult                    0      0.00%     45.28% # attempts to use FU when none available
system.cpu.iq.fu_full::FloatMultAcc                 0      0.00%     45.28% # attempts to use FU when none available
system.cpu.iq.fu_full::FloatDiv                     0      0.00%     45.28% # attempts to use FU when none available
system.cpu.iq.fu_full::FloatMisc                    0      0.00%     45.28% # attempts to use FU when none available
system.cpu.iq.fu_full::FloatSqrt                    0      0.00%     45.28% # attempts to use FU when none available
system.cpu.iq.fu_full::SimdAdd                      0      0.00%     45.28% # attempts to use FU when none available
system.cpu.iq.fu_full::SimdAddAcc                   0      0.00%     45.28% # attempts to use FU when none available
system.cpu.iq.fu_full::SimdAlu                     31      0.00%     45.28% # attempts to use FU when none available
system.cpu.iq.fu_full::SimdCmp                      0      0.00%     45.28% # attempts to use FU when none available
system.cpu.iq.fu_full::SimdCvt                      9      0.00%     45.28% # attempts to use FU when none available
system.cpu.iq.fu_full::SimdMisc                    76      0.00%     45.29% # attempts to use FU when none available
system.cpu.iq.fu_full::SimdMult                     0      0.00%     45.29% # attempts to use FU when none available
system.cpu.iq.fu_full::SimdMultAcc                  0      0.00%     45.29% # attempts to use FU when none available
system.cpu.iq.fu_full::SimdShift                    0      0.00%     45.29% # attempts to use FU when none available
system.cpu.iq.fu_full::SimdShiftAcc                 0      0.00%     45.29% # attempts to use FU when none available
system.cpu.iq.fu_full::SimdDiv                      0      0.00%     45.29% # attempts to use FU when none available
system.cpu.iq.fu_full::SimdSqrt                     0      0.00%     45.29% # attempts to use FU when none available
system.cpu.iq.fu_full::SimdFloatAdd                 0      0.00%     45.29% # attempts to use FU when none available
system.cpu.iq.fu_full::SimdFloatAlu                 0      0.00%     45.29% # attempts to use FU when none available
system.cpu.iq.fu_full::SimdFloatCmp                 0      0.00%     45.29% # attempts to use FU when none available
system.cpu.iq.fu_full::SimdFloatCvt                 0      0.00%     45.29% # attempts to use FU when none available
system.cpu.iq.fu_full::SimdFloatDiv                 0      0.00%     45.29% # attempts to use FU when none available
system.cpu.iq.fu_full::SimdFloatMisc                0      0.00%     45.29% # attempts to use FU when none available
system.cpu.iq.fu_full::SimdFloatMult                0      0.00%     45.29% # attempts to use FU when none available
system.cpu.iq.fu_full::SimdFloatMultAcc             0      0.00%     45.29% # attempts to use FU when none available
system.cpu.iq.fu_full::SimdFloatSqrt                0      0.00%     45.29% # attempts to use FU when none available
system.cpu.iq.fu_full::SimdReduceAdd                0      0.00%     45.29% # attempts to use FU when none available
system.cpu.iq.fu_full::SimdReduceAlu                0      0.00%     45.29% # attempts to use FU when none available
system.cpu.iq.fu_full::SimdReduceCmp                0      0.00%     45.29% # attempts to use FU when none available
system.cpu.iq.fu_full::SimdFloatReduceAdd            0      0.00%     45.29% # attempts to use FU when none available
system.cpu.iq.fu_full::SimdFloatReduceCmp            0      0.00%     45.29% # attempts to use FU when none available
system.cpu.iq.fu_full::SimdAes                      0      0.00%     45.29% # attempts to use FU when none available
system.cpu.iq.fu_full::SimdAesMix                   0      0.00%     45.29% # attempts to use FU when none available
system.cpu.iq.fu_full::SimdSha1Hash                 0      0.00%     45.29% # attempts to use FU when none available
system.cpu.iq.fu_full::SimdSha1Hash2                0      0.00%     45.29% # attempts to use FU when none available
system.cpu.iq.fu_full::SimdSha256Hash               0      0.00%     45.29% # attempts to use FU when none available
system.cpu.iq.fu_full::SimdSha256Hash2              0      0.00%     45.29% # attempts to use FU when none available
system.cpu.iq.fu_full::SimdShaSigma2                0      0.00%     45.29% # attempts to use FU when none available
system.cpu.iq.fu_full::SimdShaSigma3                0      0.00%     45.29% # attempts to use FU when none available
system.cpu.iq.fu_full::SimdPredAlu                  0      0.00%     45.29% # attempts to use FU when none available
system.cpu.iq.fu_full::MemRead                1011953     53.84%     99.12% # attempts to use FU when none available
system.cpu.iq.fu_full::MemWrite                 14471      0.77%     99.89% # attempts to use FU when none available
system.cpu.iq.fu_full::FloatMemRead              1068      0.06%     99.95% # attempts to use FU when none available
system.cpu.iq.fu_full::FloatMemWrite              910      0.05%    100.00% # attempts to use FU when none available
system.cpu.iq.fu_full::IprAccess                    0      0.00%    100.00% # attempts to use FU when none available
system.cpu.iq.fu_full::InstPrefetch                 0      0.00%    100.00% # attempts to use FU when none available
system.cpu.iq.int_alu_accesses               90710834                       # Number of integer alu accesses
system.cpu.iq.int_inst_queue_reads          220028990                       # Number of integer instruction queue reads
system.cpu.iq.int_inst_queue_wakeup_accesses     88238887                       # Number of integer instruction queue wakeup accesses
system.cpu.iq.int_inst_queue_writes         105470340                       # Number of integer instruction queue writes
system.cpu.iq.iqInstsAdded                  109154961                       # Number of instructions added to the IQ (excludes non-spec)
system.cpu.iq.iqInstsIssued                 104736010                       # Number of instructions issued
system.cpu.iq.iqNonSpecInstsAdded               63438                       # Number of non-speculative instructions added to the IQ
system.cpu.iq.iqSquashedInstsExamined        11785344                       # Number of squashed instructions iterated over during squash; mainly for profiling
system.cpu.iq.iqSquashedInstsIssued            126229                       # Number of squashed instructions issued
system.cpu.iq.iqSquashedNonSpecRemoved          63096                       # Number of squashed non-spec instructions that were removed
system.cpu.iq.iqSquashedOperandsExamined     19524207                       # Number of squashed operands that are examined and possibly removed from graph
system.cpu.iq.issued_per_cycle::samples      39216590                       # Number of insts issued each cycle
system.cpu.iq.issued_per_cycle::mean         2.670707                       # Number of insts issued each cycle
system.cpu.iq.issued_per_cycle::stdev        2.291316                       # Number of insts issued each cycle
system.cpu.iq.issued_per_cycle::underflows            0      0.00%      0.00% # Number of insts issued each cycle
system.cpu.iq.issued_per_cycle::0             9983809     25.46%     25.46% # Number of insts issued each cycle
system.cpu.iq.issued_per_cycle::1             5159437     13.16%     38.61% # Number of insts issued each cycle
system.cpu.iq.issued_per_cycle::2             5044453     12.86%     51.48% # Number of insts issued each cycle
system.cpu.iq.issued_per_cycle::3             4862535     12.40%     63.88% # Number of insts issued each cycle
system.cpu.iq.issued_per_cycle::4             4640876     11.83%     75.71% # Number of insts issued each cycle
system.cpu.iq.issued_per_cycle::5             4111859     10.48%     86.20% # Number of insts issued each cycle
system.cpu.iq.issued_per_cycle::6             2982330      7.60%     93.80% # Number of insts issued each cycle
system.cpu.iq.issued_per_cycle::7             1567045      4.00%     97.80% # Number of insts issued each cycle
system.cpu.iq.issued_per_cycle::8              864246      2.20%    100.00% # Number of insts issued each cycle
system.cpu.iq.issued_per_cycle::overflows            0      0.00%    100.00% # Number of insts issued each cycle
system.cpu.iq.issued_per_cycle::min_value            0                       # Number of insts issued each cycle
system.cpu.iq.issued_per_cycle::max_value            8                       # Number of insts issued each cycle
system.cpu.iq.issued_per_cycle::total        39216590                       # Number of insts issued each cycle
system.cpu.iq.rate                           2.663685                       # Inst issue rate
system.cpu.iq.vec_alu_accesses                      0                       # Number of vector alu accesses
system.cpu.iq.vec_inst_queue_reads                  0                       # Number of vector instruction queue reads
system.cpu.iq.vec_inst_queue_wakeup_accesses            0                       # Number of vector instruction queue wakeup accesses
system.cpu.iq.vec_inst_queue_writes                 0                       # Number of vector instruction queue writes
system.cpu.itb.rdAccesses                           0                       # TLB accesses on read requests
system.cpu.itb.rdMisses                             0                       # TLB misses on read requests
system.cpu.itb.wrAccesses                     7587085                       # TLB accesses on write requests
system.cpu.itb.wrMisses                           256                       # TLB misses on write requests
system.cpu.memDep0.conflictingLoads          11569173                       # Number of conflicting loads.
system.cpu.memDep0.conflictingStores          5385932                       # Number of conflicting stores.
system.cpu.memDep0.insertedLoads             30313251                       # Number of loads inserted to the mem dependence unit.
system.cpu.memDep0.insertedStores             9729509                       # Number of stores inserted to the mem dependence unit.
system.cpu.misc_regfile_reads                52334921                       # number of misc regfile reads
system.cpu.misc_regfile_writes                    143                       # number of misc regfile writes
system.cpu.numCycles                         39319971                       # number of cpu cycles simulated
system.cpu.numWorkItemsCompleted                    0                       # number of work items this cpu completed
system.cpu.numWorkItemsStarted                      0                       # number of work items this cpu started
system.cpu.rename.BlockCycles                 1461462                       # Number of cycles rename is blocking
system.cpu.rename.CommittedMaps             109139378                       # Number of HB maps that are committed
system.cpu.rename.FullRegisterEvents                2                       # Number of times there has been no free registers
system.cpu.rename.IQFullEvents                 344108                       # Number of times rename has blocked due to IQ full
system.cpu.rename.IdleCycles                 10371769                       # Number of cycles rename is idle
system.cpu.rename.LQFullEvents                9713098                       # Number of times rename has blocked due to LQ full
system.cpu.rename.ROBFullEvents                  5077                       # Number of times rename has blocked due to ROB full
system.cpu.rename.RenameLookups             286616552                       # Number of register rename lookups that rename has made
system.cpu.rename.RenamedInsts              112707995                       # Number of instructions processed by rename
system.cpu.rename.RenamedOperands           127405514                       # Number of destination operands rename has renamed
system.cpu.rename.RunCycles                  14503760                       # Number of cycles rename is running
system.cpu.rename.SQFullEvents                1502147                       # Number of times rename has blocked due to SQ full
system.cpu.rename.SquashCycles                 401166                       # Number of cycles rename is squashing
system.cpu.rename.UnblockCycles              12468558                       # Number of cycles rename is unblocking
system.cpu.rename.UndoneMaps                 18266136                       # Number of HB maps that are undone due to squashing
system.cpu.rename.fp_rename_lookups          12615555                       # Number of floating rename lookups
system.cpu.rename.int_rename_lookups        174320486                       # Number of integer rename lookups
system.cpu.rename.serializeStallCycles           9875                       # count of cycles rename stalled for serializing inst
system.cpu.rename.serializingInsts                748                       # count of serializing insts renamed
system.cpu.rename.skidInsts                  17823232                       # count of insts added to the skid buffer
system.cpu.rename.tempSerializingInsts            800                       # count of temporary serializing insts renamed
system.cpu.rob.rob_reads                    139587229                       # The number of ROB reads
system.cpu.rob.rob_writes                   220189164                       # The number of ROB writes
system.cpu.timesIdled                           33662                       # Number of times that the entire CPU went into an idle state and unscheduled itself
system.cpu.workload.numSyscalls                   203                       # Number of system calls
system.membus.snoop_filter.hit_multi_requests            0                       # Number of requests hitting in the snoop filter with multiple (>1) holders of the requested data.
system.membus.snoop_filter.hit_multi_snoops            0                       # Number of snoops hitting in the snoop filter with multiple (>1) holders of the requested data.
system.membus.snoop_filter.hit_single_requests            0                       # Number of requests hitting in the snoop filter with a single holder of the requested data.
system.membus.snoop_filter.hit_single_snoops            0                       # Number of snoops hitting in the snoop filter with a single holder of the requested data.
system.membus.snoop_filter.tot_requests         16978                       # Total number of requests made to the snoop filter.
system.membus.snoop_filter.tot_snoops               0                       # Total number of snoops made to the snoop filter.
system.tol2bus.snoop_filter.hit_multi_requests          114                       # Number of requests hitting in the snoop filter with multiple (>1) holders of the requested data.
system.tol2bus.snoop_filter.hit_multi_snoops            0                       # Number of snoops hitting in the snoop filter with multiple (>1) holders of the requested data.
system.tol2bus.snoop_filter.hit_single_requests       486429                       # Number of requests hitting in the snoop filter with a single holder of the requested data.
system.tol2bus.snoop_filter.hit_single_snoops            0                       # Number of snoops hitting in the snoop filter with a single holder of the requested data.
system.tol2bus.snoop_filter.tot_requests       974853                       # Total number of requests made to the snoop filter.
system.tol2bus.snoop_filter.tot_snoops              0                       # Total number of snoops made to the snoop filter.
system.membus.pwrStateResidencyTicks::UNDEFINED  39319970000                       # Cumulative time (in ticks) in various power states
system.membus.trans_dist::ReadResp               6087                       # Transaction distribution
system.membus.trans_dist::ReadExReq             10891                       # Transaction distribution
system.membus.trans_dist::ReadExResp            10891                       # Transaction distribution
system.membus.trans_dist::ReadSharedReq          6087                       # Transaction distribution
system.membus.pkt_count_system.l2.mem_side::system.mem_ctrls.port        33956                       # Packet count per connected master and slave (bytes)
system.membus.pkt_count_system.l2.mem_side::total        33956                       # Packet count per connected master and slave (bytes)
system.membus.pkt_count::total                  33956                       # Packet count per connected master and slave (bytes)
system.membus.pkt_size_system.l2.mem_side::system.mem_ctrls.port      1086592                       # Cumulative packet size per connected master and slave (bytes)
system.membus.pkt_size_system.l2.mem_side::total      1086592                       # Cumulative packet size per connected master and slave (bytes)
system.membus.pkt_size::total                 1086592                       # Cumulative packet size per connected master and slave (bytes)
system.membus.snoops                                0                       # Total snoops (count)
system.membus.snoopTraffic                          0                       # Total snoop traffic (bytes)
system.membus.snoop_fanout::samples             16978                       # Request fanout histogram
system.membus.snoop_fanout::mean                    0                       # Request fanout histogram
system.membus.snoop_fanout::stdev                   0                       # Request fanout histogram
system.membus.snoop_fanout::underflows              0      0.00%      0.00% # Request fanout histogram
system.membus.snoop_fanout::0                   16978    100.00%    100.00% # Request fanout histogram
system.membus.snoop_fanout::1                       0      0.00%    100.00% # Request fanout histogram
system.membus.snoop_fanout::overflows               0      0.00%    100.00% # Request fanout histogram
system.membus.snoop_fanout::min_value               0                       # Request fanout histogram
system.membus.snoop_fanout::max_value               0                       # Request fanout histogram
system.membus.snoop_fanout::total               16978                       # Request fanout histogram
system.membus.reqLayer2.occupancy            16978000                       # Layer occupancy (ticks)
system.membus.reqLayer2.utilization               0.0                       # Layer utilization (%)
system.membus.respLayer1.occupancy           89515750                       # Layer occupancy (ticks)
system.membus.respLayer1.utilization              0.2                       # Layer utilization (%)
system.tol2bus.pwrStateResidencyTicks::UNDEFINED  39319970000                       # Cumulative time (in ticks) in various power states
system.tol2bus.trans_dist::ReadResp            454324                       # Transaction distribution
system.tol2bus.trans_dist::WritebackDirty       312885                       # Transaction distribution
system.tol2bus.trans_dist::WritebackClean       159896                       # Transaction distribution
system.tol2bus.trans_dist::CleanEvict           13648                       # Transaction distribution
system.tol2bus.trans_dist::ReadExReq            34099                       # Transaction distribution
system.tol2bus.trans_dist::ReadExResp           34099                       # Transaction distribution
system.tol2bus.trans_dist::ReadCleanReq        160867                       # Transaction distribution
system.tol2bus.trans_dist::ReadSharedReq       293458                       # Transaction distribution
system.tol2bus.pkt_count_system.cpu.icache.mem_side::system.l2.cpu_side       481629                       # Packet count per connected master and slave (bytes)
system.tol2bus.pkt_count_system.cpu.dcache.mem_side::system.l2.cpu_side       981647                       # Packet count per connected master and slave (bytes)
system.tol2bus.pkt_count::total               1463276                       # Packet count per connected master and slave (bytes)
system.tol2bus.pkt_size_system.cpu.icache.mem_side::system.l2.cpu_side     20528768                       # Cumulative packet size per connected master and slave (bytes)
system.tol2bus.pkt_size_system.cpu.dcache.mem_side::system.l2.cpu_side     40988288                       # Cumulative packet size per connected master and slave (bytes)
system.tol2bus.pkt_size::total               61517056                       # Cumulative packet size per connected master and slave (bytes)
system.tol2bus.snoops                               0                       # Total snoops (count)
system.tol2bus.snoopTraffic                         0                       # Total snoop traffic (bytes)
system.tol2bus.snoop_fanout::samples           488424                       # Request fanout histogram
system.tol2bus.snoop_fanout::mean            0.000233                       # Request fanout histogram
system.tol2bus.snoop_fanout::stdev           0.015276                       # Request fanout histogram
system.tol2bus.snoop_fanout::underflows             0      0.00%      0.00% # Request fanout histogram
system.tol2bus.snoop_fanout::0                 488310     99.98%     99.98% # Request fanout histogram
system.tol2bus.snoop_fanout::1                    114      0.02%    100.00% # Request fanout histogram
system.tol2bus.snoop_fanout::2                      0      0.00%    100.00% # Request fanout histogram
system.tol2bus.snoop_fanout::3                      0      0.00%    100.00% # Request fanout histogram
system.tol2bus.snoop_fanout::4                      0      0.00%    100.00% # Request fanout histogram
system.tol2bus.snoop_fanout::overflows              0      0.00%    100.00% # Request fanout histogram
system.tol2bus.snoop_fanout::min_value              0                       # Request fanout histogram
system.tol2bus.snoop_fanout::max_value              1                       # Request fanout histogram
system.tol2bus.snoop_fanout::total             488424                       # Request fanout histogram
system.tol2bus.reqLayer0.occupancy         1920415000                       # Layer occupancy (ticks)
system.tol2bus.reqLayer0.utilization              4.9                       # Layer utilization (%)
system.tol2bus.respLayer1.occupancy         982673997                       # Layer occupancy (ticks)
system.tol2bus.respLayer1.utilization             2.5                       # Layer utilization (%)
system.tol2bus.respLayer0.occupancy         482601996                       # Layer occupancy (ticks)
system.tol2bus.respLayer0.utilization             1.2                       # Layer utilization (%)
system.voltage_domain.voltage                       1                       # Voltage in Volts
system.clk_domain.clock                          1000                       # Clock period in ticks
system.l2.pwrStateResidencyTicks::UNDEFINED  39319970000                       # Cumulative time (in ticks) in various power states
system.l2.demand_hits::.cpu.inst               159135                       # number of demand (read+write) hits
system.l2.demand_hits::.cpu.data               312309                       # number of demand (read+write) hits
system.l2.demand_hits::total                   471444                       # number of demand (read+write) hits
system.l2.overall_hits::.cpu.inst              159135                       # number of overall hits
system.l2.overall_hits::.cpu.data              312309                       # number of overall hits
system.l2.overall_hits::total                  471444                       # number of overall hits
system.l2.demand_misses::.cpu.inst               1732                       # number of demand (read+write) misses
system.l2.demand_misses::.cpu.data              15248                       # number of demand (read+write) misses
system.l2.demand_misses::total                  16980                       # number of demand (read+write) misses
system.l2.overall_misses::.cpu.inst              1732                       # number of overall misses
system.l2.overall_misses::.cpu.data             15248                       # number of overall misses
system.l2.overall_misses::total                 16980                       # number of overall misses
system.l2.demand_miss_latency::.cpu.inst    169835000                       # number of demand (read+write) miss cycles
system.l2.demand_miss_latency::.cpu.data   1466636000                       # number of demand (read+write) miss cycles
system.l2.demand_miss_latency::total       1636471000                       # number of demand (read+write) miss cycles
system.l2.overall_miss_latency::.cpu.inst    169835000                       # number of overall miss cycles
system.l2.overall_miss_latency::.cpu.data   1466636000                       # number of overall miss cycles
system.l2.overall_miss_latency::total      1636471000                       # number of overall miss cycles
system.l2.demand_accesses::.cpu.inst           160867                       # number of demand (read+write) accesses
system.l2.demand_accesses::.cpu.data           327557                       # number of demand (read+write) accesses
system.l2.demand_accesses::total               488424                       # number of demand (read+write) accesses
system.l2.overall_accesses::.cpu.inst          160867                       # number of overall (read+write) accesses
system.l2.overall_accesses::.cpu.data          327557                       # number of overall (read+write) accesses
system.l2.overall_accesses::total              488424                       # number of overall (read+write) accesses
system.l2.demand_miss_rate::.cpu.inst        0.010767                       # miss rate for demand accesses
system.l2.demand_miss_rate::.cpu.data        0.046551                       # miss rate for demand accesses
system.l2.demand_miss_rate::total            0.034765                       # miss rate for demand accesses
system.l2.overall_miss_rate::.cpu.inst       0.010767                       # miss rate for overall accesses
system.l2.overall_miss_rate::.cpu.data       0.046551                       # miss rate for overall accesses
system.l2.overall_miss_rate::total           0.034765                       # miss rate for overall accesses
system.l2.demand_avg_miss_latency::.cpu.inst 98057.159353                       # average overall miss latency
system.l2.demand_avg_miss_latency::.cpu.data 96185.466946                       # average overall miss latency
system.l2.demand_avg_miss_latency::total 96376.383981                       # average overall miss latency
system.l2.overall_avg_miss_latency::.cpu.inst 98057.159353                       # average overall miss latency
system.l2.overall_avg_miss_latency::.cpu.data 96185.466946                       # average overall miss latency
system.l2.overall_avg_miss_latency::total 96376.383981                       # average overall miss latency
system.l2.blocked_cycles::no_mshrs                  0                       # number of cycles access was blocked
system.l2.blocked_cycles::no_targets                0                       # number of cycles access was blocked
system.l2.blocked::no_mshrs                         0                       # number of cycles access was blocked
system.l2.blocked::no_targets                       0                       # number of cycles access was blocked
system.l2.avg_blocked_cycles::no_mshrs            nan                       # average number of cycles each access was blocked
system.l2.avg_blocked_cycles::no_targets          nan                       # average number of cycles each access was blocked
system.l2.demand_mshr_hits::.cpu.data               1                       # number of demand (read+write) MSHR hits
system.l2.demand_mshr_hits::total                   1                       # number of demand (read+write) MSHR hits
system.l2.overall_mshr_hits::.cpu.data              1                       # number of overall MSHR hits
system.l2.overall_mshr_hits::total                  1                       # number of overall MSHR hits
system.l2.demand_mshr_misses::.cpu.inst          1732                       # number of demand (read+write) MSHR misses
system.l2.demand_mshr_misses::.cpu.data         15247                       # number of demand (read+write) MSHR misses
system.l2.demand_mshr_misses::total             16979                       # number of demand (read+write) MSHR misses
system.l2.overall_mshr_misses::.cpu.inst         1732                       # number of overall MSHR misses
system.l2.overall_mshr_misses::.cpu.data        15247                       # number of overall MSHR misses
system.l2.overall_mshr_misses::total            16979                       # number of overall MSHR misses
system.l2.demand_mshr_miss_latency::.cpu.inst    135215000                       # number of demand (read+write) MSHR miss cycles
system.l2.demand_mshr_miss_latency::.cpu.data   1161624000                       # number of demand (read+write) MSHR miss cycles
system.l2.demand_mshr_miss_latency::total   1296839000                       # number of demand (read+write) MSHR miss cycles
system.l2.overall_mshr_miss_latency::.cpu.inst    135215000                       # number of overall MSHR miss cycles
system.l2.overall_mshr_miss_latency::.cpu.data   1161624000                       # number of overall MSHR miss cycles
system.l2.overall_mshr_miss_latency::total   1296839000                       # number of overall MSHR miss cycles
system.l2.demand_mshr_miss_rate::.cpu.inst     0.010767                       # mshr miss rate for demand accesses
system.l2.demand_mshr_miss_rate::.cpu.data     0.046548                       # mshr miss rate for demand accesses
system.l2.demand_mshr_miss_rate::total       0.034763                       # mshr miss rate for demand accesses
system.l2.overall_mshr_miss_rate::.cpu.inst     0.010767                       # mshr miss rate for overall accesses
system.l2.overall_mshr_miss_rate::.cpu.data     0.046548                       # mshr miss rate for overall accesses
system.l2.overall_mshr_miss_rate::total      0.034763                       # mshr miss rate for overall accesses
system.l2.demand_avg_mshr_miss_latency::.cpu.inst 78068.706697                       # average overall mshr miss latency
system.l2.demand_avg_mshr_miss_latency::.cpu.data 76187.053191                       # average overall mshr miss latency
system.l2.demand_avg_mshr_miss_latency::total 76378.997585                       # average overall mshr miss latency
system.l2.overall_avg_mshr_miss_latency::.cpu.inst 78068.706697                       # average overall mshr miss latency
system.l2.overall_avg_mshr_miss_latency::.cpu.data 76187.053191                       # average overall mshr miss latency
system.l2.overall_avg_mshr_miss_latency::total 76378.997585                       # average overall mshr miss latency
system.l2.replacements                              0                       # number of replacements
system.l2.WritebackDirty_hits::.writebacks       312885                       # number of WritebackDirty hits
system.l2.WritebackDirty_hits::total           312885                       # number of WritebackDirty hits
system.l2.WritebackDirty_accesses::.writebacks       312885                       # number of WritebackDirty accesses(hits+misses)
system.l2.WritebackDirty_accesses::total       312885                       # number of WritebackDirty accesses(hits+misses)
system.l2.WritebackClean_hits::.writebacks       159896                       # number of WritebackClean hits
system.l2.WritebackClean_hits::total           159896                       # number of WritebackClean hits
system.l2.WritebackClean_accesses::.writebacks       159896                       # number of WritebackClean accesses(hits+misses)
system.l2.WritebackClean_accesses::total       159896                       # number of WritebackClean accesses(hits+misses)
system.l2.ReadExReq_hits::.cpu.data             23208                       # number of ReadExReq hits
system.l2.ReadExReq_hits::total                 23208                       # number of ReadExReq hits
system.l2.ReadExReq_misses::.cpu.data           10891                       # number of ReadExReq misses
system.l2.ReadExReq_misses::total               10891                       # number of ReadExReq misses
system.l2.ReadExReq_miss_latency::.cpu.data   1032762000                       # number of ReadExReq miss cycles
system.l2.ReadExReq_miss_latency::total    1032762000                       # number of ReadExReq miss cycles
system.l2.ReadExReq_accesses::.cpu.data         34099                       # number of ReadExReq accesses(hits+misses)
system.l2.ReadExReq_accesses::total             34099                       # number of ReadExReq accesses(hits+misses)
system.l2.ReadExReq_miss_rate::.cpu.data     0.319394                       # miss rate for ReadExReq accesses
system.l2.ReadExReq_miss_rate::total         0.319394                       # miss rate for ReadExReq accesses
system.l2.ReadExReq_avg_miss_latency::.cpu.data 94827.104949                       # average ReadExReq miss latency
system.l2.ReadExReq_avg_miss_latency::total 94827.104949                       # average ReadExReq miss latency
system.l2.ReadExReq_mshr_misses::.cpu.data        10891                       # number of ReadExReq MSHR misses
system.l2.ReadExReq_mshr_misses::total          10891                       # number of ReadExReq MSHR misses
system.l2.ReadExReq_mshr_miss_latency::.cpu.data    814942000                       # number of ReadExReq MSHR miss cycles
system.l2.ReadExReq_mshr_miss_latency::total    814942000                       # number of ReadExReq MSHR miss cycles
system.l2.ReadExReq_mshr_miss_rate::.cpu.data     0.319394                       # mshr miss rate for ReadExReq accesses
system.l2.ReadExReq_mshr_miss_rate::total     0.319394                       # mshr miss rate for ReadExReq accesses
system.l2.ReadExReq_avg_mshr_miss_latency::.cpu.data 74827.104949                       # average ReadExReq mshr miss latency
system.l2.ReadExReq_avg_mshr_miss_latency::total 74827.104949                       # average ReadExReq mshr miss latency
system.l2.ReadCleanReq_hits::.cpu.inst         159135                       # number of ReadCleanReq hits
system.l2.ReadCleanReq_hits::total             159135                       # number of ReadCleanReq hits
system.l2.ReadCleanReq_misses::.cpu.inst         1732                       # number of ReadCleanReq misses
system.l2.ReadCleanReq_misses::total             1732                       # number of ReadCleanReq misses
system.l2.ReadCleanReq_miss_latency::.cpu.inst    169835000                       # number of ReadCleanReq miss cycles
system.l2.ReadCleanReq_miss_latency::total    169835000                       # number of ReadCleanReq miss cycles
system.l2.ReadCleanReq_accesses::.cpu.inst       160867                       # number of ReadCleanReq accesses(hits+misses)
system.l2.ReadCleanReq_accesses::total         160867                       # number of ReadCleanReq accesses(hits+misses)
system.l2.ReadCleanReq_miss_rate::.cpu.inst     0.010767                       # miss rate for ReadCleanReq accesses
system.l2.ReadCleanReq_miss_rate::total      0.010767                       # miss rate for ReadCleanReq accesses
system.l2.ReadCleanReq_avg_miss_latency::.cpu.inst 98057.159353                       # average ReadCleanReq miss latency
system.l2.ReadCleanReq_avg_miss_latency::total 98057.159353                       # average ReadCleanReq miss latency
system.l2.ReadCleanReq_mshr_misses::.cpu.inst         1732                       # number of ReadCleanReq MSHR misses
system.l2.ReadCleanReq_mshr_misses::total         1732                       # number of ReadCleanReq MSHR misses
system.l2.ReadCleanReq_mshr_miss_latency::.cpu.inst    135215000                       # number of ReadCleanReq MSHR miss cycles
system.l2.ReadCleanReq_mshr_miss_latency::total    135215000                       # number of ReadCleanReq MSHR miss cycles
system.l2.ReadCleanReq_mshr_miss_rate::.cpu.inst     0.010767                       # mshr miss rate for ReadCleanReq accesses
system.l2.ReadCleanReq_mshr_miss_rate::total     0.010767                       # mshr miss rate for ReadCleanReq accesses
system.l2.ReadCleanReq_avg_mshr_miss_latency::.cpu.inst 78068.706697                       # average ReadCleanReq mshr miss latency
system.l2.ReadCleanReq_avg_mshr_miss_latency::total 78068.706697                       # average ReadCleanReq mshr miss latency
system.l2.ReadSharedReq_hits::.cpu.data        289101                       # number of ReadSharedReq hits
system.l2.ReadSharedReq_hits::total            289101                       # number of ReadSharedReq hits
system.l2.ReadSharedReq_misses::.cpu.data         4357                       # number of ReadSharedReq misses
system.l2.ReadSharedReq_misses::total            4357                       # number of ReadSharedReq misses
system.l2.ReadSharedReq_miss_latency::.cpu.data    433874000                       # number of ReadSharedReq miss cycles
system.l2.ReadSharedReq_miss_latency::total    433874000                       # number of ReadSharedReq miss cycles
system.l2.ReadSharedReq_accesses::.cpu.data       293458                       # number of ReadSharedReq accesses(hits+misses)
system.l2.ReadSharedReq_accesses::total        293458                       # number of ReadSharedReq accesses(hits+misses)
system.l2.ReadSharedReq_miss_rate::.cpu.data     0.014847                       # miss rate for ReadSharedReq accesses
system.l2.ReadSharedReq_miss_rate::total     0.014847                       # miss rate for ReadSharedReq accesses
system.l2.ReadSharedReq_avg_miss_latency::.cpu.data 99580.904292                       # average ReadSharedReq miss latency
system.l2.ReadSharedReq_avg_miss_latency::total 99580.904292                       # average ReadSharedReq miss latency
system.l2.ReadSharedReq_mshr_hits::.cpu.data            1                       # number of ReadSharedReq MSHR hits
system.l2.ReadSharedReq_mshr_hits::total            1                       # number of ReadSharedReq MSHR hits
system.l2.ReadSharedReq_mshr_misses::.cpu.data         4356                       # number of ReadSharedReq MSHR misses
system.l2.ReadSharedReq_mshr_misses::total         4356                       # number of ReadSharedReq MSHR misses
system.l2.ReadSharedReq_mshr_miss_latency::.cpu.data    346682000                       # number of ReadSharedReq MSHR miss cycles
system.l2.ReadSharedReq_mshr_miss_latency::total    346682000                       # number of ReadSharedReq MSHR miss cycles
system.l2.ReadSharedReq_mshr_miss_rate::.cpu.data     0.014844                       # mshr miss rate for ReadSharedReq accesses
system.l2.ReadSharedReq_mshr_miss_rate::total     0.014844                       # mshr miss rate for ReadSharedReq accesses
system.l2.ReadSharedReq_avg_mshr_miss_latency::.cpu.data 79587.235996                       # average ReadSharedReq mshr miss latency
system.l2.ReadSharedReq_avg_mshr_miss_latency::total 79587.235996                       # average ReadSharedReq mshr miss latency
system.l2.tags.pwrStateResidencyTicks::UNDEFINED  39319970000                       # Cumulative time (in ticks) in various power states
system.l2.tags.tagsinuse                 10460.636091                       # Cycle average of tags in use
system.l2.tags.total_refs                      974737                       # Total number of references to valid blocks.
system.l2.tags.sampled_refs                     16978                       # Sample count of references to valid blocks.
system.l2.tags.avg_refs                     57.411768                       # Average number of references to valid blocks.
system.l2.tags.warmup_cycle                     86000                       # Cycle when the warmup percentage was hit.
system.l2.tags.occ_blocks::.cpu.inst      1444.627392                       # Average occupied blocks per requestor
system.l2.tags.occ_blocks::.cpu.data      9016.008699                       # Average occupied blocks per requestor
system.l2.tags.occ_percent::.cpu.inst        0.044087                       # Average percentage of cache occupancy
system.l2.tags.occ_percent::.cpu.data        0.275147                       # Average percentage of cache occupancy
system.l2.tags.occ_percent::total            0.319233                       # Average percentage of cache occupancy
system.l2.tags.occ_task_id_blocks::1024         16978                       # Occupied blocks per task id
system.l2.tags.age_task_id_blocks_1024::0           78                       # Occupied blocks per task id
system.l2.tags.age_task_id_blocks_1024::1            8                       # Occupied blocks per task id
system.l2.tags.age_task_id_blocks_1024::2          393                       # Occupied blocks per task id
system.l2.tags.age_task_id_blocks_1024::3         3848                       # Occupied blocks per task id
system.l2.tags.age_task_id_blocks_1024::4        12651                       # Occupied blocks per task id
system.l2.tags.occ_task_id_percent::1024     0.518127                       # Percentage of cache occupancy per task id
system.l2.tags.tag_accesses                   7814890                       # Number of tag accesses
system.l2.tags.data_accesses                  7814890                       # Number of data accesses
system.cpu_voltage_domain.voltage                   1                       # Voltage in Volts
system.mem_ctrls.pwrStateResidencyTicks::UNDEFINED  39319970000                       # Cumulative time (in ticks) in various power states
system.mem_ctrls.bytes_read::.cpu.inst         110784                       # Number of bytes read from this memory
system.mem_ctrls.bytes_read::.cpu.data         975808                       # Number of bytes read from this memory
system.mem_ctrls.bytes_read::total            1086592                       # Number of bytes read from this memory
system.mem_ctrls.bytes_inst_read::.cpu.inst       110784                       # Number of instructions bytes read from this memory
system.mem_ctrls.bytes_inst_read::total        110784                       # Number of instructions bytes read from this memory
system.mem_ctrls.num_reads::.cpu.inst            1731                       # Number of read requests responded to by this memory
system.mem_ctrls.num_reads::.cpu.data           15247                       # Number of read requests responded to by this memory
system.mem_ctrls.num_reads::total               16978                       # Number of read requests responded to by this memory
system.mem_ctrls.bw_read::.cpu.inst           2817500                       # Total read bandwidth from this memory (bytes/s)
system.mem_ctrls.bw_read::.cpu.data          24817109                       # Total read bandwidth from this memory (bytes/s)
system.mem_ctrls.bw_read::total              27634609                       # Total read bandwidth from this memory (bytes/s)
system.mem_ctrls.bw_inst_read::.cpu.inst      2817500                       # Instruction read bandwidth from this memory (bytes/s)
system.mem_ctrls.bw_inst_read::total          2817500                       # Instruction read bandwidth from this memory (bytes/s)
system.mem_ctrls.bw_total::.cpu.inst          2817500                       # Total bandwidth to/from this memory (bytes/s)
system.mem_ctrls.bw_total::.cpu.data         24817109                       # Total bandwidth to/from this memory (bytes/s)
system.mem_ctrls.bw_total::total             27634609                       # Total bandwidth to/from this memory (bytes/s)
system.mem_ctrls.avgPriority_.cpu.inst::samples      1731.00                       # Average QoS priority value for accepted requests
system.mem_ctrls.avgPriority_.cpu.data::samples     15247.00                       # Average QoS priority value for accepted requests
system.mem_ctrls.priorityMinLatency      0.000000018750                       # per QoS priority minimum request to response latency (s)
system.mem_ctrls.priorityMaxLatency      0.000000579000                       # per QoS priority maximum request to response latency (s)
system.mem_ctrls.numReadWriteTurnArounds            0                       # Number of turnarounds from READ to WRITE
system.mem_ctrls.numWriteReadTurnArounds            0                       # Number of turnarounds from WRITE to READ
system.mem_ctrls.numStayReadState               44019                       # Number of times bus staying in READ state
system.mem_ctrls.numStayWriteState                  0                       # Number of times bus staying in WRITE state
system.mem_ctrls.readReqs                       16978                       # Number of read requests accepted
system.mem_ctrls.writeReqs                          0                       # Number of write requests accepted
system.mem_ctrls.readBursts                     16978                       # Number of DRAM read bursts, including those serviced by the write queue
system.mem_ctrls.writeBursts                        0                       # Number of DRAM write bursts, including those merged in the write queue
system.mem_ctrls.servicedByWrQ                      0                       # Number of DRAM read bursts serviced by the write queue
system.mem_ctrls.mergedWrBursts                     0                       # Number of DRAM write bursts merged with an existing one
system.mem_ctrls.neitherReadNorWriteReqs            0                       # Number of requests that are neither read nor write
system.mem_ctrls.perBankRdBursts::0               969                       # Per bank write bursts
system.mem_ctrls.perBankRdBursts::1              1060                       # Per bank write bursts
system.mem_ctrls.perBankRdBursts::2              1043                       # Per bank write bursts
system.mem_ctrls.perBankRdBursts::3              1132                       # Per bank write bursts
system.mem_ctrls.perBankRdBursts::4              1279                       # Per bank write bursts
system.mem_ctrls.perBankRdBursts::5              1167                       # Per bank write bursts
system.mem_ctrls.perBankRdBursts::6              1020                       # Per bank write bursts
system.mem_ctrls.perBankRdBursts::7              1042                       # Per bank write bursts
system.mem_ctrls.perBankRdBursts::8              1107                       # Per bank write bursts
system.mem_ctrls.perBankRdBursts::9              1029                       # Per bank write bursts
system.mem_ctrls.perBankRdBursts::10              923                       # Per bank write bursts
system.mem_ctrls.perBankRdBursts::11             1095                       # Per bank write bursts
system.mem_ctrls.perBankRdBursts::12             1265                       # Per bank write bursts
system.mem_ctrls.perBankRdBursts::13             1062                       # Per bank write bursts
system.mem_ctrls.perBankRdBursts::14              920                       # Per bank write bursts
system.mem_ctrls.perBankRdBursts::15              865                       # Per bank write bursts
system.mem_ctrls.perBankWrBursts::0                 0                       # Per bank write bursts
system.mem_ctrls.perBankWrBursts::1                 0                       # Per bank write bursts
system.mem_ctrls.perBankWrBursts::2                 0                       # Per bank write bursts
system.mem_ctrls.perBankWrBursts::3                 0                       # Per bank write bursts
system.mem_ctrls.perBankWrBursts::4                 0                       # Per bank write bursts
system.mem_ctrls.perBankWrBursts::5                 0                       # Per bank write bursts
system.mem_ctrls.perBankWrBursts::6                 0                       # Per bank write bursts
system.mem_ctrls.perBankWrBursts::7                 0                       # Per bank write bursts
system.mem_ctrls.perBankWrBursts::8                 0                       # Per bank write bursts
system.mem_ctrls.perBankWrBursts::9                 0                       # Per bank write bursts
system.mem_ctrls.perBankWrBursts::10                0                       # Per bank write bursts
system.mem_ctrls.perBankWrBursts::11                0                       # Per bank write bursts
system.mem_ctrls.perBankWrBursts::12                0                       # Per bank write bursts
system.mem_ctrls.perBankWrBursts::13                0                       # Per bank write bursts
system.mem_ctrls.perBankWrBursts::14                0                       # Per bank write bursts
system.mem_ctrls.perBankWrBursts::15                0                       # Per bank write bursts
system.mem_ctrls.avgRdQLen                       1.05                       # Average read queue length when enqueuing
[...]
system.cpu.icache.tags.tag_accesses          15334840                       # Number of tag accesses
system.cpu.icache.tags.data_accesses         15334840                       # Number of data accesses
system.cpu.dtb.walker.pwrStateResidencyTicks::UNDEFINED  39319970000                       # Cumulative time (in ticks) in various power states
system.cpu.interrupts.clk_domain.clock          16000                       # Clock period in ticks
system.cpu.itb_walker_cache.pwrStateResidencyTicks::UNDEFINED  39319970000                       # Cumulative time (in ticks) in various power states
system.cpu.itb_walker_cache.blocked_cycles::no_mshrs            0                       # number of cycles access was blocked
system.cpu.itb_walker_cache.blocked_cycles::no_targets            0                       # number of cycles access was blocked
system.cpu.itb_walker_cache.blocked::no_mshrs            0                       # number of cycles access was blocked
system.cpu.itb_walker_cache.blocked::no_targets            0                       # number of cycles access was blocked
system.cpu.itb_walker_cache.avg_blocked_cycles::no_mshrs          nan                       # average number of cycles each access was blocked
system.cpu.itb_walker_cache.avg_blocked_cycles::no_targets          nan                       # average number of cycles each access was blocked
system.cpu.itb_walker_cache.replacements            0                       # number of replacements
system.cpu.itb_walker_cache.tags.pwrStateResidencyTicks::UNDEFINED  39319970000                       # Cumulative time (in ticks) in various power states
system.cpu.itb_walker_cache.tags.tagsinuse            0                       # Cycle average of tags in use
system.cpu.itb_walker_cache.tags.total_refs            0                       # Total number of references to valid blocks.
system.cpu.itb_walker_cache.tags.sampled_refs            0                       # Sample count of references to valid blocks.
system.cpu.itb_walker_cache.tags.avg_refs          nan                       # Average number of references to valid blocks.
system.cpu.itb_walker_cache.tags.warmup_cycle            0                       # Cycle when the warmup percentage was hit.
system.cpu.itb_walker_cache.tags.tag_accesses            0                       # Number of tag accesses
system.cpu.itb_walker_cache.tags.data_accesses            0                       # Number of data accesses
system.cpu.itb.walker.pwrStateResidencyTicks::UNDEFINED  39319970000                       # Cumulative time (in ticks) in various power states
system.cpu.dtb_walker_cache.pwrStateResidencyTicks::UNDEFINED  39319970000                       # Cumulative time (in ticks) in various power states
system.cpu.dtb_walker_cache.blocked_cycles::no_mshrs            0                       # number of cycles access was blocked
system.cpu.dtb_walker_cache.blocked_cycles::no_targets            0                       # number of cycles access was blocked
system.cpu.dtb_walker_cache.blocked::no_mshrs            0                       # number of cycles access was blocked
system.cpu.dtb_walker_cache.blocked::no_targets            0                       # number of cycles access was blocked
system.cpu.dtb_walker_cache.avg_blocked_cycles::no_mshrs          nan                       # average number of cycles each access was blocked
system.cpu.dtb_walker_cache.avg_blocked_cycles::no_targets          nan                       # average number of cycles each access was blocked
system.cpu.dtb_walker_cache.replacements            0                       # number of replacements
system.cpu.dtb_walker_cache.tags.pwrStateResidencyTicks::UNDEFINED  39319970000                       # Cumulative time (in ticks) in various power states
system.cpu.dtb_walker_cache.tags.tagsinuse            0                       # Cycle average of tags in use
system.cpu.dtb_walker_cache.tags.total_refs            0                       # Total number of references to valid blocks.
system.cpu.dtb_walker_cache.tags.sampled_refs            0                       # Sample count of references to valid blocks.
system.cpu.dtb_walker_cache.tags.avg_refs          nan                       # Average number of references to valid blocks.
system.cpu.dtb_walker_cache.tags.warmup_cycle            0                       # Cycle when the warmup percentage was hit.
system.cpu.dtb_walker_cache.tags.tag_accesses            0                       # Number of tag accesses
system.cpu.dtb_walker_cache.tags.data_accesses            0                       # Number of data accesses
system.cpu.dcache.pwrStateResidencyTicks::UNDEFINED  39319970000                       # Cumulative time (in ticks) in various power states
system.cpu.dcache.demand_hits::.cpu.data     25499769                       # number of demand (read+write) hits
system.cpu.dcache.demand_hits::total         25499769                       # number of demand (read+write) hits
system.cpu.dcache.overall_hits::.cpu.data     25499796                       # number of overall hits
system.cpu.dcache.overall_hits::total        25499796                       # number of overall hits
system.cpu.dcache.demand_misses::.cpu.data       812260                       # number of demand (read+write) misses
system.cpu.dcache.demand_misses::total         812260                       # number of demand (read+write) misses
system.cpu.dcache.overall_misses::.cpu.data       815733                       # number of overall misses
system.cpu.dcache.overall_misses::total        815733                       # number of overall misses
system.cpu.dcache.demand_miss_latency::.cpu.data  18059424994                       # number of demand (read+write) miss cycles
system.cpu.dcache.demand_miss_latency::total  18059424994                       # number of demand (read+write) miss cycles
system.cpu.dcache.overall_miss_latency::.cpu.data  18059424994                       # number of overall miss cycles
system.cpu.dcache.overall_miss_latency::total  18059424994                       # number of overall miss cycles
system.cpu.dcache.demand_accesses::.cpu.data     26312029                       # number of demand (read+write) accesses
system.cpu.dcache.demand_accesses::total     26312029                       # number of demand (read+write) accesses
system.cpu.dcache.overall_accesses::.cpu.data     26315529                       # number of overall (read+write) accesses
system.cpu.dcache.overall_accesses::total     26315529                       # number of overall (read+write) accesses
system.cpu.dcache.demand_miss_rate::.cpu.data     0.030870                       # miss rate for demand accesses
system.cpu.dcache.demand_miss_rate::total     0.030870                       # miss rate for demand accesses
system.cpu.dcache.overall_miss_rate::.cpu.data     0.030998                       # miss rate for overall accesses
system.cpu.dcache.overall_miss_rate::total     0.030998                       # miss rate for overall accesses
system.cpu.dcache.demand_avg_miss_latency::.cpu.data 22233.552057                       # average overall miss latency
system.cpu.dcache.demand_avg_miss_latency::total 22233.552057                       # average overall miss latency
system.cpu.dcache.overall_avg_miss_latency::.cpu.data 22138.892253                       # average overall miss latency
system.cpu.dcache.overall_avg_miss_latency::total 22138.892253                       # average overall miss latency
system.cpu.dcache.blocked_cycles::no_mshrs        54311                       # number of cycles access was blocked
system.cpu.dcache.blocked_cycles::no_targets           18                       # number of cycles access was blocked
system.cpu.dcache.blocked::no_mshrs              2726                       # number of cycles access was blocked
system.cpu.dcache.blocked::no_targets               3                       # number of cycles access was blocked
system.cpu.dcache.avg_blocked_cycles::no_mshrs    19.923331                       # average number of cycles each access was blocked
system.cpu.dcache.avg_blocked_cycles::no_targets            6                       # average number of cycles each access was blocked
system.cpu.dcache.writebacks::.writebacks       312885                       # number of writebacks
system.cpu.dcache.writebacks::total            312885                       # number of writebacks
system.cpu.dcache.demand_mshr_hits::.cpu.data       488176                       # number of demand (read+write) MSHR hits
system.cpu.dcache.demand_mshr_hits::total       488176                       # number of demand (read+write) MSHR hits
system.cpu.dcache.overall_mshr_hits::.cpu.data       488176                       # number of overall MSHR hits
system.cpu.dcache.overall_mshr_hits::total       488176                       # number of overall MSHR hits
system.cpu.dcache.demand_mshr_misses::.cpu.data       324084                       # number of demand (read+write) MSHR misses
system.cpu.dcache.demand_mshr_misses::total       324084                       # number of demand (read+write) MSHR misses
system.cpu.dcache.overall_mshr_misses::.cpu.data       327557                       # number of overall MSHR misses
system.cpu.dcache.overall_mshr_misses::total       327557                       # number of overall MSHR misses
system.cpu.dcache.demand_mshr_miss_latency::.cpu.data   8845862994                       # number of demand (read+write) MSHR miss cycles
system.cpu.dcache.demand_mshr_miss_latency::total   8845862994                       # number of demand (read+write) MSHR miss cycles
system.cpu.dcache.overall_mshr_miss_latency::.cpu.data   9067748994                       # number of overall MSHR miss cycles
system.cpu.dcache.overall_mshr_miss_latency::total   9067748994                       # number of overall MSHR miss cycles
system.cpu.dcache.demand_mshr_miss_rate::.cpu.data     0.012317                       # mshr miss rate for demand accesses
system.cpu.dcache.demand_mshr_miss_rate::total     0.012317                       # mshr miss rate for demand accesses
system.cpu.dcache.overall_mshr_miss_rate::.cpu.data     0.012447                       # mshr miss rate for overall accesses
system.cpu.dcache.overall_mshr_miss_rate::total     0.012447                       # mshr miss rate for overall accesses
system.cpu.dcache.demand_avg_mshr_miss_latency::.cpu.data 27294.969804                       # average overall mshr miss latency
system.cpu.dcache.demand_avg_mshr_miss_latency::total 27294.969804                       # average overall mshr miss latency
system.cpu.dcache.overall_avg_mshr_miss_latency::.cpu.data 27682.965084                       # average overall mshr miss latency
system.cpu.dcache.overall_avg_mshr_miss_latency::total 27682.965084                       # average overall mshr miss latency
system.cpu.dcache.replacements                 326533                       # number of replacements
system.cpu.dcache.ReadReq_hits::.cpu.data     16488138                       # number of ReadReq hits
system.cpu.dcache.ReadReq_hits::total        16488138                       # number of ReadReq hits
system.cpu.dcache.ReadReq_misses::.cpu.data       777907                       # number of ReadReq misses
system.cpu.dcache.ReadReq_misses::total        777907                       # number of ReadReq misses
system.cpu.dcache.ReadReq_miss_latency::.cpu.data  16340265000                       # number of ReadReq miss cycles
system.cpu.dcache.ReadReq_miss_latency::total  16340265000                       # number of ReadReq miss cycles
system.cpu.dcache.ReadReq_accesses::.cpu.data     17266045                       # number of ReadReq accesses(hits+misses)
system.cpu.dcache.ReadReq_accesses::total     17266045                       # number of ReadReq accesses(hits+misses)
system.cpu.dcache.ReadReq_miss_rate::.cpu.data     0.045054                       # miss rate for ReadReq accesses
system.cpu.dcache.ReadReq_miss_rate::total     0.045054                       # miss rate for ReadReq accesses
system.cpu.dcache.ReadReq_avg_miss_latency::.cpu.data 21005.422242                       # average ReadReq miss latency
system.cpu.dcache.ReadReq_avg_miss_latency::total 21005.422242                       # average ReadReq miss latency
system.cpu.dcache.ReadReq_mshr_hits::.cpu.data       487824                       # number of ReadReq MSHR hits
system.cpu.dcache.ReadReq_mshr_hits::total       487824                       # number of ReadReq MSHR hits
system.cpu.dcache.ReadReq_mshr_misses::.cpu.data       290083                       # number of ReadReq MSHR misses
system.cpu.dcache.ReadReq_mshr_misses::total       290083                       # number of ReadReq MSHR misses
system.cpu.dcache.ReadReq_mshr_miss_latency::.cpu.data   7209256000                       # number of ReadReq MSHR miss cycles
system.cpu.dcache.ReadReq_mshr_miss_latency::total   7209256000                       # number of ReadReq MSHR miss cycles
system.cpu.dcache.ReadReq_mshr_miss_rate::.cpu.data     0.016801                       # mshr miss rate for ReadReq accesses
system.cpu.dcache.ReadReq_mshr_miss_rate::total     0.016801                       # mshr miss rate for ReadReq accesses
system.cpu.dcache.ReadReq_avg_mshr_miss_latency::.cpu.data 24852.390523                       # average ReadReq mshr miss latency
system.cpu.dcache.ReadReq_avg_mshr_miss_latency::total 24852.390523                       # average ReadReq mshr miss latency
system.cpu.dcache.WriteReq_hits::.cpu.data      9011631                       # number of WriteReq hits
system.cpu.dcache.WriteReq_hits::total        9011631                       # number of WriteReq hits
system.cpu.dcache.WriteReq_misses::.cpu.data        34353                       # number of WriteReq misses
system.cpu.dcache.WriteReq_misses::total        34353                       # number of WriteReq misses
system.cpu.dcache.WriteReq_miss_latency::.cpu.data   1719159994                       # number of WriteReq miss cycles
system.cpu.dcache.WriteReq_miss_latency::total   1719159994                       # number of WriteReq miss cycles
system.cpu.dcache.WriteReq_accesses::.cpu.data      9045984                       # number of WriteReq accesses(hits+misses)
system.cpu.dcache.WriteReq_accesses::total      9045984                       # number of WriteReq accesses(hits+misses)
system.cpu.dcache.WriteReq_miss_rate::.cpu.data     0.003798                       # miss rate for WriteReq accesses
system.cpu.dcache.WriteReq_miss_rate::total     0.003798                       # miss rate for WriteReq accesses
system.cpu.dcache.WriteReq_avg_miss_latency::.cpu.data 50043.955230                       # average WriteReq miss latency
system.cpu.dcache.WriteReq_avg_miss_latency::total 50043.955230                       # average WriteReq miss latency
system.cpu.dcache.WriteReq_mshr_hits::.cpu.data          352                       # number of WriteReq MSHR hits
system.cpu.dcache.WriteReq_mshr_hits::total          352                       # number of WriteReq MSHR hits
system.cpu.dcache.WriteReq_mshr_misses::.cpu.data        34001                       # number of WriteReq MSHR misses
system.cpu.dcache.WriteReq_mshr_misses::total        34001                       # number of WriteReq MSHR misses
system.cpu.dcache.WriteReq_mshr_miss_latency::.cpu.data   1636606994                       # number of WriteReq MSHR miss cycles
system.cpu.dcache.WriteReq_mshr_miss_latency::total   1636606994                       # number of WriteReq MSHR miss cycles
system.cpu.dcache.WriteReq_mshr_miss_rate::.cpu.data     0.003759                       # mshr miss rate for WriteReq accesses
system.cpu.dcache.WriteReq_mshr_miss_rate::total     0.003759                       # mshr miss rate for WriteReq accesses
system.cpu.dcache.WriteReq_avg_mshr_miss_latency::.cpu.data 48134.084115                       # average WriteReq mshr miss latency
system.cpu.dcache.WriteReq_avg_mshr_miss_latency::total 48134.084115                       # average WriteReq mshr miss latency
system.cpu.dcache.SoftPFReq_hits::.cpu.data           27                       # number of SoftPFReq hits
system.cpu.dcache.SoftPFReq_hits::total            27                       # number of SoftPFReq hits
system.cpu.dcache.SoftPFReq_misses::.cpu.data         3473                       # number of SoftPFReq misses
system.cpu.dcache.SoftPFReq_misses::total         3473                       # number of SoftPFReq misses
system.cpu.dcache.SoftPFReq_accesses::.cpu.data         3500                       # number of SoftPFReq accesses(hits+misses)
system.cpu.dcache.SoftPFReq_accesses::total         3500                       # number of SoftPFReq accesses(hits+misses)
system.cpu.dcache.SoftPFReq_miss_rate::.cpu.data     0.992286                       # miss rate for SoftPFReq accesses
system.cpu.dcache.SoftPFReq_miss_rate::total     0.992286                       # miss rate for SoftPFReq accesses
system.cpu.dcache.SoftPFReq_mshr_misses::.cpu.data         3473                       # number of SoftPFReq MSHR misses
system.cpu.dcache.SoftPFReq_mshr_misses::total         3473                       # number of SoftPFReq MSHR misses
system.cpu.dcache.SoftPFReq_mshr_miss_latency::.cpu.data    221886000                       # number of SoftPFReq MSHR miss cycles
system.cpu.dcache.SoftPFReq_mshr_miss_latency::total    221886000                       # number of SoftPFReq MSHR miss cycles
system.cpu.dcache.SoftPFReq_mshr_miss_rate::.cpu.data     0.992286                       # mshr miss rate for SoftPFReq accesses
system.cpu.dcache.SoftPFReq_mshr_miss_rate::total     0.992286                       # mshr miss rate for SoftPFReq accesses
system.cpu.dcache.SoftPFReq_avg_mshr_miss_latency::.cpu.data 63888.856896                       # average SoftPFReq mshr miss latency
system.cpu.dcache.SoftPFReq_avg_mshr_miss_latency::total 63888.856896                       # average SoftPFReq mshr miss latency
system.cpu.dcache.tags.pwrStateResidencyTicks::UNDEFINED  39319970000                       # Cumulative time (in ticks) in various power states
system.cpu.dcache.tags.tagsinuse          1022.166727                       # Cycle average of tags in use
system.cpu.dcache.tags.total_refs            25827353                       # Total number of references to valid blocks.
system.cpu.dcache.tags.sampled_refs            327557                       # Sample count of references to valid blocks.
system.cpu.dcache.tags.avg_refs             78.848423                       # Average number of references to valid blocks.
system.cpu.dcache.tags.warmup_cycle            223000                       # Cycle when the warmup percentage was hit.
system.cpu.dcache.tags.occ_blocks::.cpu.data  1022.166727                       # Average occupied blocks per requestor
system.cpu.dcache.tags.occ_percent::.cpu.data     0.998210                       # Average percentage of cache occupancy
system.cpu.dcache.tags.occ_percent::total     0.998210                       # Average percentage of cache occupancy
system.cpu.dcache.tags.occ_task_id_blocks::1024         1024                       # Occupied blocks per task id
system.cpu.dcache.tags.age_task_id_blocks_1024::0           67                       # Occupied blocks per task id
system.cpu.dcache.tags.age_task_id_blocks_1024::1          955                       # Occupied blocks per task id
system.cpu.dcache.tags.age_task_id_blocks_1024::2            2                       # Occupied blocks per task id
system.cpu.dcache.tags.occ_task_id_percent::1024            1                       # Percentage of cache occupancy per task id
system.cpu.dcache.tags.tag_accesses         210851789                       # Number of tag accesses
system.cpu.dcache.tags.data_accesses        210851789                       # Number of data accesses

---------- End Simulation Statistics   ----------
