
---------- Begin Simulation Statistics ----------
final_tick                                38655261000                       # Number of ticks from beginning of simulation (restored from checkpoints and never reset)
host_inst_rate                                 147624                       # Simulator instruction rate (inst/s)
host_mem_usage                                 842640                       # Number of bytes of host memory used
host_op_rate                                   247857                       # Simulator op (including micro ops) rate (op/s)
host_seconds                                   393.10                       # Real time elapsed on the host
host_tick_rate                               98333987                       # Simulator tick rate (ticks/s)
sim_freq                                 1000000000000                       # Frequency of simulated ticks
sim_insts                                    58031203                       # Number of instructions simulated
sim_ops                                      97433054                       # Number of ops (including micro ops) simulated
sim_seconds                                  0.038655                       # Number of seconds simulated
sim_ticks                                 38655261000                       # Number of ticks simulated
system.cpu.branchPred.BTBCorrect                    0                       # Number of correct BTB predictions (this stat may not work properly.
system.cpu.branchPred.BTBHitPct              0.000000                       # BTB Hit Percentage
system.cpu.branchPred.BTBHits                       0                       # Number of BTB hits
system.cpu.branchPred.BTBLookups              7214585                       # Number of BTB lookups
system.cpu.branchPred.RASInCorrect                 54                       # Number of incorrect RAS predictions.
system.cpu.branchPred.condIncorrect            399816                       # Number of conditional branches incorrect
system.cpu.branchPred.condPredicted           7396826                       # Number of conditional branches predicted
system.cpu.branchPred.indirectHits            4400401                       # Number of indirect target hits.
system.cpu.branchPred.indirectLookups         7214585                       # Number of indirect predictor lookups.
system.cpu.branchPred.indirectMisses          2814184                       # Number of indirect misses.
system.cpu.branchPred.lookups                 8341771                       # Number of BP lookups
system.cpu.branchPred.usedRAS                  466475                       # Number of times the RAS was used to get a target.
system.cpu.branchPredindirectMispredicted       256154                       # Number of mispredicted indirect branches.
system.cpu.cc_regfile_reads                  36449270                       # number of cc regfile reads
system.cpu.cc_regfile_writes                 27703477                       # number of cc regfile writes
system.cpu.commit.amos                              0                       # Number of atomic instructions committed
system.cpu.commit.branchMispredicts            399879                       # The number of times a branch was mispredicted
system.cpu.commit.branches                    6128620                       # Number of branches committed
system.cpu.commit.bw_lim_events               7018024                       # number cycles where commit BW limit reached
system.cpu.commit.commitNonSpecStalls             342                       # The number of times commit has been forced to stall to communicate backwards
system.cpu.commit.commitSquashedInsts        11868242                       # The number of squashed insts skipped by commit
system.cpu.commit.committedInsts             58031203                       # Number of instructions committed
system.cpu.commit.committedOps               97433054                       # Number of ops (including micro ops) committed
system.cpu.commit.committed_per_cycle::samples     36812141                       # Number of insts commited each cycle
system.cpu.commit.committed_per_cycle::mean     2.646764                       # Number of insts commited each cycle
system.cpu.commit.committed_per_cycle::stdev     3.067795                       # Number of insts commited each cycle
system.cpu.commit.committed_per_cycle::underflows            0      0.00%      0.00% # Number of insts commited each cycle
system.cpu.commit.committed_per_cycle::0     14415426     39.16%     39.16% # Number of insts commited each cycle
system.cpu.commit.committed_per_cycle::1      4457170     12.11%     51.27% # Number of insts commited each cycle
system.cpu.commit.committed_per_cycle::2      4429302     12.03%     63.30% # Number of insts commited each cycle
system.cpu.commit.committed_per_cycle::3      2808593      7.63%     70.93% # Number of insts commited each cycle
system.cpu.commit.committed_per_cycle::4      1196079      3.25%     74.18% # Number of insts commited each cycle
system.cpu.commit.committed_per_cycle::5       575189      1.56%     75.74% # Number of insts commited each cycle
system.cpu.commit.committed_per_cycle::6      1499458      4.07%     79.81% # Number of insts commited each cycle
system.cpu.commit.committed_per_cycle::7       412900      1.12%     80.94% # Number of insts commited each cycle
system.cpu.commit.committed_per_cycle::8      7018024     19.06%    100.00% # Number of insts commited each cycle
system.cpu.commit.committed_per_cycle::overflows            0      0.00%    100.00% # Number of insts commited each cycle
system.cpu.commit.committed_per_cycle::min_value            0                       # Number of insts commited each cycle
system.cpu.commit.committed_per_cycle::max_value            8                       # Number of insts commited each cycle
system.cpu.commit.committed_per_cycle::total     36812141                       # Number of insts commited each cycle
system.cpu.commit.fp_insts                   15257866                       # Number of committed floating point instructions.
system.cpu.commit.function_calls               331381                       # Number of function calls committed.
system.cpu.commit.int_insts                  88475678                       # Number of committed integer instructions.
system.cpu.commit.loads                      29041349                       # Number of loads committed
system.cpu.commit.membars                           0                       # Number of memory barriers committed
system.cpu.commit.op_class_0::No_OpClass       396158      0.41%      0.41% # Class of committed instruction
system.cpu.commit.op_class_0::IntAlu         49791704     51.10%     51.51% # Class of committed instruction
system.cpu.commit.op_class_0::IntMult           41115      0.04%     51.55% # Class of committed instruction
system.cpu.commit.op_class_0::IntDiv           555804      0.57%     52.12% # Class of committed instruction
system.cpu.commit.op_class_0::FloatAdd        4888605      5.02%     57.14% # Class of committed instruction
system.cpu.commit.op_class_0::FloatCmp              0      0.00%     57.14% # Class of committed instruction
system.cpu.commit.op_class_0::FloatCvt            240      0.00%     57.14% # Class of committed instruction
system.cpu.commit.op_class_0::FloatMult             0      0.00%     57.14% # Class of committed instruction
system.cpu.commit.op_class_0::FloatMultAcc            0      0.00%     57.14% # Class of committed instruction
system.cpu.commit.op_class_0::FloatDiv              0      0.00%     57.14% # Class of committed instruction
system.cpu.commit.op_class_0::FloatMisc             0      0.00%     57.14% # Class of committed instruction
system.cpu.commit.op_class_0::FloatSqrt             0      0.00%     57.14% # Class of committed instruction
system.cpu.commit.op_class_0::SimdAdd               0      0.00%     57.14% # Class of committed instruction
system.cpu.commit.op_class_0::SimdAddAcc            0      0.00%     57.14% # Class of committed instruction
system.cpu.commit.op_class_0::SimdAlu           55888      0.06%     57.20% # Class of committed instruction
system.cpu.commit.op_class_0::SimdCmp               0      0.00%     57.20% # Class of committed instruction
system.cpu.commit.op_class_0::SimdCvt           74006      0.08%     57.27% # Class of committed instruction
system.cpu.commit.op_class_0::SimdMisc         211704      0.22%     57.49% # Class of committed instruction
system.cpu.commit.op_class_0::SimdMult              0      0.00%     57.49% # Class of committed instruction
system.cpu.commit.op_class_0::SimdMultAcc            0      0.00%     57.49% # Class of committed instruction
system.cpu.commit.op_class_0::SimdShift             0      0.00%     57.49% # Class of committed instruction
system.cpu.commit.op_class_0::SimdShiftAcc            0      0.00%     57.49% # Class of committed instruction
system.cpu.commit.op_class_0::SimdDiv               0      0.00%     57.49% # Class of committed instruction
system.cpu.commit.op_class_0::SimdSqrt              0      0.00%     57.49% # Class of committed instruction
system.cpu.commit.op_class_0::SimdFloatAdd      1642100      1.69%     59.18% # Class of committed instruction
system.cpu.commit.op_class_0::SimdFloatAlu            0      0.00%     59.18% # Class of committed instruction
system.cpu.commit.op_class_0::SimdFloatCmp            0      0.00%     59.18% # Class of committed instruction
system.cpu.commit.op_class_0::SimdFloatCvt        23310      0.02%     59.20% # Class of committed instruction
system.cpu.commit.op_class_0::SimdFloatDiv        19110      0.02%     59.22% # Class of committed instruction
system.cpu.commit.op_class_0::SimdFloatMisc            0      0.00%     59.22% # Class of committed instruction
system.cpu.commit.op_class_0::SimdFloatMult      1646080      1.69%     60.91% # Class of committed instruction
system.cpu.commit.op_class_0::SimdFloatMultAcc            0      0.00%     60.91% # Class of committed instruction
system.cpu.commit.op_class_0::SimdFloatSqrt            0      0.00%     60.91% # Class of committed instruction
system.cpu.commit.op_class_0::SimdReduceAdd            0      0.00%     60.91% # Class of committed instruction
system.cpu.commit.op_class_0::SimdReduceAlu            0      0.00%     60.91% # Class of committed instruction
system.cpu.commit.op_class_0::SimdReduceCmp            0      0.00%     60.91% # Class of committed instruction
system.cpu.commit.op_class_0::SimdFloatReduceAdd            0      0.00%     60.91% # Class of committed instruction
system.cpu.commit.op_class_0::SimdFloatReduceCmp            0      0.00%     60.91% # Class of committed instruction
system.cpu.commit.op_class_0::SimdAes               0      0.00%     60.91% # Class of committed instruction
system.cpu.commit.op_class_0::SimdAesMix            0      0.00%     60.91% # Class of committed instruction
system.cpu.commit.op_class_0::SimdSha1Hash            0      0.00%     60.91% # Class of committed instruction
system.cpu.commit.op_class_0::SimdSha1Hash2            0      0.00%     60.91% # Class of committed instruction
system.cpu.commit.op_class_0::SimdSha256Hash            0      0.00%     60.91% # Class of committed instruction
system.cpu.commit.op_class_0::SimdSha256Hash2            0      0.00%     60.91% # Class of committed instruction
system.cpu.commit.op_class_0::SimdShaSigma2            0      0.00%     60.91% # Class of committed instruction
system.cpu.commit.op_class_0::SimdShaSigma3            0      0.00%     60.91% # Class of committed instruction
system.cpu.commit.op_class_0::SimdPredAlu            0      0.00%     60.91% # Class of committed instruction
system.cpu.commit.op_class_0::MemRead        24082189     24.72%     85.63% # Class of committed instruction
system.cpu.commit.op_class_0::MemWrite        7400535      7.60%     93.22% # Class of committed instruction
system.cpu.commit.op_class_0::FloatMemRead      4959160      5.09%     98.31% # Class of committed instruction
system.cpu.commit.op_class_0::FloatMemWrite      1645346      1.69%    100.00% # Class of committed instruction
system.cpu.commit.op_class_0::IprAccess             0      0.00%    100.00% # Class of committed instruction
system.cpu.commit.op_class_0::InstPrefetch            0      0.00%    100.00% # Class of committed instruction
system.cpu.commit.op_class_0::total          97433054                       # Class of committed instruction
system.cpu.commit.refs                       38087230                       # Number of memory references committed
system.cpu.commit.swp_count                         0                       # Number of s/w prefetches committed
system.cpu.commit.vec_insts                         0                       # Number of committed Vector instructions.
system.cpu.committedInsts                    58031203                       # Number of Instructions Simulated
system.cpu.committedOps                      97433054                       # Number of Ops (including micro ops) Simulated
system.cpu.cpi                               0.666112                       # CPI: Cycles Per Instruction
system.cpu.cpi_total                         0.666112                       # CPI: Total CPI of All Threads
system.cpu.decode.BlockedCycles              13119510                       # Number of cycles decode is blocked
system.cpu.decode.DecodedInsts              114632202                       # Number of instructions handled by decode
system.cpu.decode.IdleCycles                  8848109                       # Number of cycles decode is idle
system.cpu.decode.RunCycles                  12387998                       # Number of cycles decode is running
system.cpu.decode.SquashCycles                 404501                       # Number of cycles decode is squashing
system.cpu.decode.UnblockCycles               3788370                       # Number of cycles decode is unblocking
system.cpu.dtb.rdAccesses                    29776046                       # TLB accesses on read requests
system.cpu.dtb.rdMisses                         15272                       # TLB misses on read requests
system.cpu.dtb.wrAccesses                     9275132                       # TLB accesses on write requests
system.cpu.dtb.wrMisses                          3401                       # TLB misses on write requests
system.cpu.fetch.Branches                     8341771                       # Number of branches that fetch encountered
system.cpu.fetch.CacheLines                   7603446                       # Number of cache lines fetched
system.cpu.fetch.Cycles                      26997147                       # Number of cycles fetch has run and was not squashing or blocked
system.cpu.fetch.IcacheSquashes                138640                       # Number of outstanding Icache misses that were squashed
system.cpu.fetch.IcacheWaitRetryStallCycles           14                       # Number of stall cycles due to full MSHR
system.cpu.fetch.Insts                       67963901                       # Number of instructions fetch has processed
system.cpu.fetch.MiscStallCycles                  116                       # Number of cycles fetch has spent waiting on interrupts, or bad addresses, or out of MSHRs
system.cpu.fetch.PendingQuiesceStallCycles          351                       # Number of stall cycles due to pending quiesce instructions
system.cpu.fetch.PendingTrapStallCycles           681                       # Number of stall cycles due to pending traps
system.cpu.fetch.SquashCycles                  809002                       # Number of cycles fetch has spent squashing
system.cpu.fetch.branchRate                  0.215799                       # Number of branch fetches per cycle
system.cpu.fetch.icacheStallCycles           11145678                       # Number of cycles fetch is stalled on an Icache miss
system.cpu.fetch.predictedBranches            4866876                       # Number of branches that fetch has predicted taken
system.cpu.fetch.rate                        1.758206                       # Number of inst fetches per cycle
system.cpu.fetch.rateDist::samples           38548488                       # Number of instructions fetched each cycle (Total)
system.cpu.fetch.rateDist::mean              3.044684                       # Number of instructions fetched each cycle (Total)
system.cpu.fetch.rateDist::stdev             3.570100                       # Number of instructions fetched each cycle (Total)
system.cpu.fetch.rateDist::underflows               0      0.00%      0.00% # Number of instructions fetched each cycle (Total)
system.cpu.fetch.rateDist::0                 19072415     49.48%     49.48% # Number of instructions fetched each cycle (Total)
system.cpu.fetch.rateDist::1                  1917321      4.97%     54.45% # Number of instructions fetched each cycle (Total)
system.cpu.fetch.rateDist::2                  2273828      5.90%     60.35% # Number of instructions fetched each cycle (Total)
system.cpu.fetch.rateDist::3                   788102      2.04%     62.39% # Number of instructions fetched each cycle (Total)
system.cpu.fetch.rateDist::4                   512377      1.33%     63.72% # Number of instructions fetched each cycle (Total)
system.cpu.fetch.rateDist::5                  1212235      3.14%     66.87% # Number of instructions fetched each cycle (Total)
system.cpu.fetch.rateDist::6                   443413      1.15%     68.02% # Number of instructions fetched each cycle (Total)
system.cpu.fetch.rateDist::7                   862856      2.24%     70.26% # Number of instructions fetched each cycle (Total)
system.cpu.fetch.rateDist::8                 11465941     29.74%    100.00% # Number of instructions fetched each cycle (Total)
system.cpu.fetch.rateDist::overflows                0      0.00%    100.00% # Number of instructions fetched each cycle (Total)
system.cpu.fetch.rateDist::min_value                0                       # Number of instructions fetched each cycle (Total)
system.cpu.fetch.rateDist::max_value                8                       # Number of instructions fetched each cycle (Total)
system.cpu.fetch.rateDist::total             38548488                       # Number of instructions fetched each cycle (Total)
system.cpu.fp_regfile_reads                  12474555                       # number of floating regfile reads
system.cpu.fp_regfile_writes                 13569018                       # number of floating regfile writes
system.cpu.idleCycles                          106774                       # Total number of cycles that the CPU has spent unscheduled due to idling
system.cpu.iew.branchMispredicts               502700                       # Number of branch mispredicts detected at execute
system.cpu.iew.exec_branches                  6663791                       # Number of branches executed
system.cpu.iew.exec_nop                             0                       # number of nop insts executed
system.cpu.iew.exec_rate                     2.687554                       # Inst execution rate
system.cpu.iew.exec_refs                     39042479                       # number of memory reference insts executed
system.cpu.iew.exec_stores                    9274634                       # Number of stores executed
system.cpu.iew.exec_swp                             0                       # number of swp insts executed
system.cpu.iew.iewBlockCycles                 1370113                       # Number of cycles IEW is blocking
system.cpu.iew.iewDispLoadInsts              30312578                       # Number of dispatched load instructions
system.cpu.iew.iewDispNonSpecInsts              18946                       # Number of dispatched non-speculative instructions
system.cpu.iew.iewDispSquashedInsts             18468                       # Number of squashed instructions skipped by dispatch
system.cpu.iew.iewDispStoreInsts              9727435                       # Number of dispatched store instructions
system.cpu.iew.iewDispatchedInsts           109300875                       # Number of instructions dispatched to IQ
system.cpu.iew.iewExecLoadInsts              29767845                       # Number of load instructions executed
system.cpu.iew.iewExecSquashedInsts            920432                       # Number of squashed instructions skipped in execute
system.cpu.iew.iewExecutedInsts             103888091                       # Number of executed instructions
system.cpu.iew.iewIQFullEvents                   2223                       # Number of times the IQ has become full, causing a stall
system.cpu.iew.iewIdleCycles                        0                       # Number of cycles IEW is idle
system.cpu.iew.iewLSQFullEvents                 32274                       # Number of times the LSQ has become full, causing a stall
system.cpu.iew.iewSquashCycles                 404501                       # Number of cycles IEW is squashing
system.cpu.iew.iewUnblockCycles                 35353                       # Number of cycles IEW is unblocking
system.cpu.iew.lsq.thread0.blockedLoads             0                       # Number of blocked loads due to partial load-store forwarding
system.cpu.iew.lsq.thread0.cacheBlocked          2672                       # Number of times an access to memory failed due to the cache being blocked
system.cpu.iew.lsq.thread0.forwLoads         12488470                       # Number of loads that had data forwarded from stores
system.cpu.iew.lsq.thread0.ignoredResponses        11147                       # Number of memory responses ignored because the instruction is squashed
system.cpu.iew.lsq.thread0.invAddrLoads             0                       # Number of loads ignored due to an invalid address
system.cpu.iew.lsq.thread0.invAddrSwpfs             0                       # Number of software prefetches ignored due to an invalid address
system.cpu.iew.lsq.thread0.memOrderViolation         5873                       # Number of memory ordering violations
system.cpu.iew.lsq.thread0.rescheduledLoads          735                       # Number of loads that were rescheduled
system.cpu.iew.lsq.thread0.squashedLoads      1271229                       # Number of loads squashed
system.cpu.iew.lsq.thread0.squashedStores       681554                       # Number of stores squashed
system.cpu.iew.memOrderViolationEvents           5873                       # Number of memory order violations
system.cpu.iew.predictedNotTakenIncorrect       415039                       # Number of branches that were predicted not taken incorrectly
system.cpu.iew.predictedTakenIncorrect          87661                       # Number of branches that were predicted taken incorrectly
system.cpu.iew.wb_consumers                 105469187                       # num instructions consuming a value
system.cpu.iew.wb_count                     103587102                       # cumulative count of insts written-back
system.cpu.iew.wb_fanout                     0.726473                       # average fanout of values written-back
system.cpu.iew.wb_producers                  76620521                       # num instructions producing a value
system.cpu.iew.wb_rate                       2.679767                       # insts written-back per cycle
system.cpu.iew.wb_sent                      103701238                       # cumulative count of insts sent to commit
system.cpu.int_regfile_reads                157614737                       # number of integer regfile reads
system.cpu.int_regfile_writes                75043510                       # number of integer regfile writes
system.cpu.ipc                               1.501250                       # IPC: Instructions Per Cycle
system.cpu.ipc_total                         1.501250                       # IPC: Total IPC of All Threads
system.cpu.iq.FU_type_0::No_OpClass            574404      0.55%      0.55% # Type of FU issued
system.cpu.iq.FU_type_0::IntAlu              55695713     53.14%     53.69% # Type of FU issued
system.cpu.iq.FU_type_0::IntMult                41484      0.04%     53.73% # Type of FU issued
system.cpu.iq.FU_type_0::IntDiv                589807      0.56%     54.29% # Type of FU issued
system.cpu.iq.FU_type_0::FloatAdd             4914203      4.69%     58.98% # Type of FU issued
system.cpu.iq.FU_type_0::FloatCmp                   0      0.00%     58.98% # Type of FU issued
system.cpu.iq.FU_type_0::FloatCvt                2289      0.00%     58.98% # Type of FU issued
system.cpu.iq.FU_type_0::FloatMult                  0      0.00%     58.98% # Type of FU issued
system.cpu.iq.FU_type_0::FloatMultAcc               0      0.00%     58.98% # Type of FU issued
system.cpu.iq.FU_type_0::FloatDiv                   0      0.00%     58.98% # Type of FU issued
system.cpu.iq.FU_type_0::FloatMisc                  0      0.00%     58.98% # Type of FU issued
system.cpu.iq.FU_type_0::FloatSqrt                  0      0.00%     58.98% # Type of FU issued
system.cpu.iq.FU_type_0::SimdAdd                    0      0.00%     58.98% # Type of FU issued
system.cpu.iq.FU_type_0::SimdAddAcc                 0      0.00%     58.98% # Type of FU issued
system.cpu.iq.FU_type_0::SimdAlu                58735      0.06%     59.04% # Type of FU issued
system.cpu.iq.FU_type_0::SimdCmp                    0      0.00%     59.04% # Type of FU issued
system.cpu.iq.FU_type_0::SimdCvt                78991      0.08%     59.11% # Type of FU issued
system.cpu.iq.FU_type_0::SimdMisc              216297      0.21%     59.32% # Type of FU issued
system.cpu.iq.FU_type_0::SimdMult                   0      0.00%     59.32% # Type of FU issued
system.cpu.iq.FU_type_0::SimdMultAcc                0      0.00%     59.32% # Type of FU issued
system.cpu.iq.FU_type_0::SimdShift                  0      0.00%     59.32% # Type of FU issued
system.cpu.iq.FU_type_0::SimdShiftAcc               0      0.00%     59.32% # Type of FU issued
system.cpu.iq.FU_type_0::SimdDiv                    0      0.00%     59.32% # Type of FU issued
system.cpu.iq.FU_type_0::SimdSqrt                   0      0.00%     59.32% # Type of FU issued
system.cpu.iq.FU_type_0::SimdFloatAdd         1642342      1.57%     60.89% # Type of FU issued
system.cpu.iq.FU_type_0::SimdFloatAlu               0      0.00%     60.89% # Type of FU issued
system.cpu.iq.FU_type_0::SimdFloatCmp               0      0.00%     60.89% # Type of FU issued
system.cpu.iq.FU_type_0::SimdFloatCvt           23422      0.02%     60.91% # Type of FU issued
system.cpu.iq.FU_type_0::SimdFloatDiv           19229      0.02%     60.93% # Type of FU issued
system.cpu.iq.FU_type_0::SimdFloatMisc              0      0.00%     60.93% # Type of FU issued
system.cpu.iq.FU_type_0::SimdFloatMult        1646206      1.57%     62.50% # Type of FU issued
system.cpu.iq.FU_type_0::SimdFloatMultAcc            0      0.00%     62.50% # Type of FU issued
system.cpu.iq.FU_type_0::SimdFloatSqrt              0      0.00%     62.50% # Type of FU issued
system.cpu.iq.FU_type_0::SimdReduceAdd              0      0.00%     62.50% # Type of FU issued
system.cpu.iq.FU_type_0::SimdReduceAlu              0      0.00%     62.50% # Type of FU issued
system.cpu.iq.FU_type_0::SimdReduceCmp              0      0.00%     62.50% # Type of FU issued
system.cpu.iq.FU_type_0::SimdFloatReduceAdd            0      0.00%     62.50% # Type of FU issued
system.cpu.iq.FU_type_0::SimdFloatReduceCmp            0      0.00%     62.50% # Type of FU issued
system.cpu.iq.FU_type_0::SimdAes                    0      0.00%     62.50% # Type of FU issued
system.cpu.iq.FU_type_0::SimdAesMix                 0      0.00%     62.50% # Type of FU issued
system.cpu.iq.FU_type_0::SimdSha1Hash               0      0.00%     62.50% # Type of FU issued
system.cpu.iq.FU_type_0::SimdSha1Hash2              0      0.00%     62.50% # Type of FU issued
system.cpu.iq.FU_type_0::SimdSha256Hash             0      0.00%     62.50% # Type of FU issued
system.cpu.iq.FU_type_0::SimdSha256Hash2            0      0.00%     62.50% # Type of FU issued
system.cpu.iq.FU_type_0::SimdShaSigma2              0      0.00%     62.50% # Type of FU issued
system.cpu.iq.FU_type_0::SimdShaSigma3              0      0.00%     62.50% # Type of FU issued
system.cpu.iq.FU_type_0::SimdPredAlu                0      0.00%     62.50% # Type of FU issued
system.cpu.iq.FU_type_0::MemRead             24958281     23.81%     86.31% # Type of FU issued
system.cpu.iq.FU_type_0::MemWrite             7712721      7.36%     93.67% # Type of FU issued
system.cpu.iq.FU_type_0::FloatMemRead         4987481      4.76%     98.43% # Type of FU issued
system.cpu.iq.FU_type_0::FloatMemWrite        1646918      1.57%    100.00% # Type of FU issued
system.cpu.iq.FU_type_0::IprAccess                  0      0.00%    100.00% # Type of FU issued
system.cpu.iq.FU_type_0::InstPrefetch               0      0.00%    100.00% # Type of FU issued
system.cpu.iq.FU_type_0::total              104808523                       # Type of FU issued
system.cpu.iq.fp_alu_accesses                15332054                       # Number of floating point alu accesses
system.cpu.iq.fp_inst_queue_reads            30662273                       # Number of floating instruction queue reads
system.cpu.iq.fp_inst_queue_wakeup_accesses     15303893                       # Number of floating instruction queue wakeup accesses
system.cpu.iq.fp_inst_queue_writes           15530172                       # Number of floating instruction queue writes
system.cpu.iq.fu_busy_cnt                     1915379                       # FU busy when requested
system.cpu.iq.fu_busy_rate                   0.018275                       # FU busy rate (busy events/executed inst)
system.cpu.iq.fu_full::No_OpClass                   0      0.00%      0.00% # attempts to use FU when none available
system.cpu.iq.fu_full::IntAlu                  852464     44.51%     44.51% # attempts to use FU when none available
system.cpu.iq.fu_full::IntMult                      0      0.00%     44.51% # attempts to use FU when none available
system.cpu.iq.fu_full::IntDiv                       0      0.00%     44.51% # attempts to use FU when none available
system.cpu.iq.fu_full::FloatAdd                     0      0.00%     44.51% # attempts to use FU when none available
system.cpu.iq.fu_full::FloatCmp                     0      0.00%     44.51% # attempts to use FU when none available
system.cpu.iq.fu_full::FloatCvt                    16      0.00%     44.51% # attempts to use FU when none available
system.cpu.iq.fu_full::FloatMult                    0      0.00%     44.51% # attempts to use FU when none available
system.cpu.iq.fu_full::FloatMultAcc                 0      0.00%     44.51% # attempts to use FU when none available
system.cpu.iq.fu_full::FloatDiv                     0      0.00%     44.51% # attempts to use FU when none available
system.cpu.iq.fu_full::FloatMisc                    0      0.00%     44.51% # attempts to use FU when none available
system.cpu.iq.fu_full::FloatSqrt                    0      0.00%     44.51% # attempts to use FU when none available
system.cpu.iq.fu_full::SimdAdd                      0      0.00%     44.51% # attempts to use FU when none available
system.cpu.iq.fu_full::SimdAddAcc                   0      0.00%     44.51% # attempts to use FU when none available
system.cpu.iq.fu_full::SimdAlu                     37      0.00%     44.51% # attempts to use FU when none available
system.cpu.iq.fu_full::SimdCmp                      0      0.00%     44.51% # attempts to use FU when none available
system.cpu.iq.fu_full::SimdCvt                      4      0.00%     44.51% # attempts to use FU when none available
system.cpu.iq.fu_full::SimdMisc                    65      0.00%     44.51% # attempts to use FU when none available
system.cpu.iq.fu_full::SimdMult                     0      0.00%     44.51% # attempts to use FU when none available
system.cpu.iq.fu_full::SimdMultAcc                  0      0.00%     44.51% # attempts to use FU when none available
system.cpu.iq.fu_full::SimdShift                    0      0.00%     44.51% # attempts to use FU when none available
system.cpu.iq.fu_full::SimdShiftAcc                 0      0.00%     44.51% # attempts to use FU when none available
system.cpu.iq.fu_full::SimdDiv                      0      0.00%     44.51% # attempts to use FU when none available
system.cpu.iq.fu_full::SimdSqrt                     0      0.00%     44.51% # attempts to use FU when none available
system.cpu.iq.fu_full::SimdFloatAdd                 0      0.00%     44.51% # attempts to use FU when none available
system.cpu.iq.fu_full::SimdFloatAlu                 0      0.00%     44.51% # attempts to use FU when none available
system.cpu.iq.fu_full::SimdFloatCmp                 0      0.00%     44.51% # attempts to use FU when none available
system.cpu.iq.fu_full::SimdFloatCvt                 0      0.00%     44.51% # attempts to use FU when none available
system.cpu.iq.fu_full::SimdFloatDiv                 0      0.00%     44.51% # attempts to use FU when none available
system.cpu.iq.fu_full::SimdFloatMisc                0      0.00%     44.51% # attempts to use FU when none available
system.cpu.iq.fu_full::SimdFloatMult                0      0.00%     44.51% # attempts to use FU when none available
system.cpu.iq.fu_full::SimdFloatMultAcc             0      0.00%     44.51% # attempts to use FU when none available
system.cpu.iq.fu_full::SimdFloatSqrt                0      0.00%     44.51% # attempts to use FU when none available
system.cpu.iq.fu_full::SimdReduceAdd                0      0.00%     44.51% # attempts to use FU when none available
system.cpu.iq.fu_full::SimdReduceAlu                0      0.00%     44.51% # attempts to use FU when none available
system.cpu.iq.fu_full::SimdReduceCmp                0      0.00%     44.51% # attempts to use FU when none available
system.cpu.iq.fu_full::SimdFloatReduceAdd            0      0.00%     44.51% # attempts to use FU when none available
system.cpu.iq.fu_full::SimdFloatReduceCmp            0      0.00%     44.51% # attempts to use FU when none available
system.cpu.iq.fu_full::SimdAes                      0      0.00%     44.51% # attempts to use FU when none available
system.cpu.iq.fu_full::SimdAesMix                   0      0.00%     44.51% # attempts to use FU when none available
system.cpu.iq.fu_full::SimdSha1Hash                 0      0.00%     44.51% # attempts to use FU when none available
system.cpu.iq.fu_full::SimdSha1Hash2                0      0.00%     44.51% # attempts to use FU when none available
system.cpu.iq.fu_full::SimdSha256Hash               0      0.00%     44.51% # attempts to use FU when none available
system.cpu.iq.fu_full::SimdSha256Hash2              0      0.00%     44.51% # attempts to use FU when none available
system.cpu.iq.fu_full::SimdShaSigma2                0      0.00%     44.51% # attempts to use FU when none available
system.cpu.iq.fu_full::SimdShaSigma3                0      0.00%     44.51% # attempts to use FU when none available
system.cpu.iq.fu_full::SimdPredAlu                  0      0.00%     44.51% # attempts to use FU when none available
system.cpu.iq.fu_full::MemRead                1046278     54.63%     99.14% # attempts to use FU when none available
system.cpu.iq.fu_full::MemWrite                 14443      0.75%     99.89% # attempts to use FU when none available
system.cpu.iq.fu_full::FloatMemRead              1216      0.06%     99.96% # attempts to use FU when none available
system.cpu.iq.fu_full::FloatMemWrite              856      0.04%    100.00% # attempts to use FU when none available
system.cpu.iq.fu_full::IprAccess                    0      0.00%    100.00% # attempts to use FU when none available
system.cpu.iq.fu_full::InstPrefetch                 0      0.00%    100.00% # attempts to use FU when none available
system.cpu.iq.int_alu_accesses               90817444                       # Number of integer alu accesses
system.cpu.iq.int_inst_queue_reads          219546306                       # Number of integer instruction queue reads
system.cpu.iq.int_inst_queue_wakeup_accesses     88283209                       # Number of integer instruction queue wakeup accesses
system.cpu.iq.int_inst_queue_writes         105644125                       # Number of integer instruction queue writes
system.cpu.iq.iqInstsAdded                  109244627                       # Number of instructions added to the IQ (excludes non-spec)
system.cpu.iq.iqInstsIssued                 104808523                       # Number of instructions issued
system.cpu.iq.iqNonSpecInstsAdded               56248                       # Number of non-speculative instructions added to the IQ
system.cpu.iq.iqSquashedInstsExamined        11867820                       # Number of squashed instructions iterated over during squash; mainly for profiling
system.cpu.iq.iqSquashedInstsIssued            127666                       # Number of squashed instructions issued
system.cpu.iq.iqSquashedNonSpecRemoved          55906                       # Number of squashed non-spec instructions that were removed
system.cpu.iq.iqSquashedOperandsExamined     19632717                       # Number of squashed operands that are examined and possibly removed from graph
system.cpu.iq.issued_per_cycle::samples      38548488                       # Number of insts issued each cycle
system.cpu.iq.issued_per_cycle::mean         2.718875                       # Number of insts issued each cycle
system.cpu.iq.issued_per_cycle::stdev        2.279511                       # Number of insts issued each cycle
system.cpu.iq.issued_per_cycle::underflows            0      0.00%      0.00% # Number of insts issued each cycle
system.cpu.iq.issued_per_cycle::0             9455721     24.53%     24.53% # Number of insts issued each cycle
system.cpu.iq.issued_per_cycle::1             4817924     12.50%     37.03% # Number of insts issued each cycle
system.cpu.iq.issued_per_cycle::2             5314304     13.79%     50.81% # Number of insts issued each cycle
system.cpu.iq.issued_per_cycle::3             4582590     11.89%     62.70% # Number of insts issued each cycle
system.cpu.iq.issued_per_cycle::4             4753810     12.33%     75.03% # Number of insts issued each cycle
system.cpu.iq.issued_per_cycle::5             4343250     11.27%     86.30% # Number of insts issued each cycle
system.cpu.iq.issued_per_cycle::6             2896963      7.52%     93.82% # Number of insts issued each cycle
system.cpu.iq.issued_per_cycle::7             1570455      4.07%     97.89% # Number of insts issued each cycle
system.cpu.iq.issued_per_cycle::8              813471      2.11%    100.00% # Number of insts issued each cycle
system.cpu.iq.issued_per_cycle::overflows            0      0.00%    100.00% # Number of insts issued each cycle
system.cpu.iq.issued_per_cycle::min_value            0                       # Number of insts issued each cycle
system.cpu.iq.issued_per_cycle::max_value            8                       # Number of insts issued each cycle
system.cpu.iq.issued_per_cycle::total        38548488                       # Number of insts issued each cycle
system.cpu.iq.rate                           2.711365                       # Inst issue rate
system.cpu.iq.vec_alu_accesses                      0                       # Number of vector alu accesses
system.cpu.iq.vec_inst_queue_reads                  0                       # Number of vector instruction queue reads
system.cpu.iq.vec_inst_queue_wakeup_accesses            0                       # Number of vector instruction queue wakeup accesses
system.cpu.iq.vec_inst_queue_writes                 0                       # Number of vector instruction queue writes
system.cpu.itb.rdAccesses                           0                       # TLB accesses on read requests
system.cpu.itb.rdMisses                             0                       # TLB misses on read requests
system.cpu.itb.wrAccesses                     7603567                       # TLB accesses on write requests
system.cpu.itb.wrMisses                           279                       # TLB misses on write requests
system.cpu.memDep0.conflictingLoads          11502433                       # Number of conflicting loads.
system.cpu.memDep0.conflictingStores          5378279                       # Number of conflicting stores.
system.cpu.memDep0.insertedLoads             30312578                       # Number of loads inserted to the mem dependence unit.
system.cpu.memDep0.insertedStores             9727435                       # Number of stores inserted to the mem dependence unit.
system.cpu.misc_regfile_reads                52350968                       # number of misc regfile reads
system.cpu.misc_regfile_writes                    143                       # number of misc regfile writes
system.cpu.numCycles                         38655262                       # number of cpu cycles simulated
system.cpu.numWorkItemsCompleted                    0                       # number of work items this cpu completed
system.cpu.numWorkItemsStarted                      0                       # number of work items this cpu started
system.cpu.rename.BlockCycles                 1444517                       # Number of cycles rename is blocking
system.cpu.rename.CommittedMaps             109139378                       # Number of HB maps that are committed
system.cpu.rename.IQFullEvents                 328036                       # Number of times rename has blocked due to IQ full
system.cpu.rename.IdleCycles                 10423848                       # Number of cycles rename is idle
system.cpu.rename.LQFullEvents                9253434                       # Number of times rename has blocked due to LQ full
system.cpu.rename.ROBFullEvents                  6014                       # Number of times rename has blocked due to ROB full
system.cpu.rename.RenameLookups             286988164                       # Number of register rename lookups that rename has made
system.cpu.rename.RenamedInsts              112846552                       # Number of instructions processed by rename
system.cpu.rename.RenamedOperands           127589624                       # Number of destination operands rename has renamed
system.cpu.rename.RunCycles                  14531305                       # Number of cycles rename is running
system.cpu.rename.SQFullEvents                1259424                       # Number of times rename has blocked due to SQ full
system.cpu.rename.SquashCycles                 404501                       # Number of cycles rename is squashing
system.cpu.rename.UnblockCycles              11734175                       # Number of cycles rename is unblocking
system.cpu.rename.UndoneMaps                 18450246                       # Number of HB maps that are undone due to squashing
system.cpu.rename.fp_rename_lookups          12611228                       # Number of floating rename lookups
system.cpu.rename.int_rename_lookups        174527046                       # Number of integer rename lookups
system.cpu.rename.serializeStallCycles          10142                       # count of cycles rename stalled for serializing inst
system.cpu.rename.serializingInsts                751                       # count of serializing insts renamed
system.cpu.rename.skidInsts                  18259515                       # count of insts added to the skid buffer
system.cpu.rename.tempSerializingInsts            805                       # count of temporary serializing insts renamed
system.cpu.rob.rob_reads                    139095413                       # The number of ROB reads
system.cpu.rob.rob_writes                   220363004                       # The number of ROB writes
system.cpu.timesIdled                           32964                       # Number of times that the entire CPU went into an idle state and unscheduled itself
system.cpu.workload.numSyscalls                   203                       # Number of system calls
system.membus.snoop_filter.hit_multi_requests            0                       # Number of requests hitting in the snoop filter with multiple (>1) holders of the requested data.
system.membus.snoop_filter.hit_multi_snoops            0                       # Number of snoops hitting in the snoop filter with multiple (>1) holders of the requested data.
system.membus.snoop_filter.hit_single_requests            0                       # Number of requests hitting in the snoop filter with a single holder of the requested data.
system.membus.snoop_filter.hit_single_snoops            0                       # Number of snoops hitting in the snoop filter with a single holder of the requested data.
system.membus.snoop_filter.tot_requests         16965                       # Total number of requests made to the snoop filter.
system.membus.snoop_filter.tot_snoops               0                       # Total number of snoops made to the snoop filter.
system.tol2bus.snoop_filter.hit_multi_requests          234                       # Number of requests hitting in the snoop filter with multiple (>1) holders of the requested data.
system.tol2bus.snoop_filter.hit_multi_snoops            0                       # Number of snoops hitting in the snoop filter with multiple (>1) holders of the requested data.
system.tol2bus.snoop_filter.hit_single_requests       415287                       # Number of requests hitting in the snoop filter with a single holder of the requested data.
system.tol2bus.snoop_filter.hit_single_snoops            0                       # Number of snoops hitting in the snoop filter with a single holder of the requested data.
system.tol2bus.snoop_filter.tot_requests       832570                       # Total number of requests made to the snoop filter.
system.tol2bus.snoop_filter.tot_snoops              0                       # Total number of snoops made to the snoop filter.
system.membus.pwrStateResidencyTicks::UNDEFINED  38655261000                       # Cumulative time (in ticks) in various power states
system.membus.trans_dist::ReadResp               6071                       # Transaction distribution
system.membus.trans_dist::ReadExReq             10894                       # Transaction distribution
system.membus.trans_dist::ReadExResp            10894                       # Transaction distribution
system.membus.trans_dist::ReadSharedReq          6071                       # Transaction distribution
system.membus.pkt_count_system.l2.mem_side::system.mem_ctrls.port        33930                       # Packet count per connected master and slave (bytes)
system.membus.pkt_count_system.l2.mem_side::total        33930                       # Packet count per connected master and slave (bytes)
system.membus.pkt_count::total                  33930                       # Packet count per connected master and slave (bytes)
system.membus.pkt_size_system.l2.mem_side::system.mem_ctrls.port      1085760                       # Cumulative packet size per connected master and slave (bytes)
system.membus.pkt_size_system.l2.mem_side::total      1085760                       # Cumulative packet size per connected master and slave (bytes)
system.membus.pkt_size::total                 1085760                       # Cumulative packet size per connected master and slave (bytes)
system.membus.snoops                                0                       # Total snoops (count)
system.membus.snoopTraffic                          0                       # Total snoop traffic (bytes)
system.membus.snoop_fanout::samples             16965                       # Request fanout histogram
system.membus.snoop_fanout::mean                    0                       # Request fanout histogram
system.membus.snoop_fanout::stdev                   0                       # Request fanout histogram
system.membus.snoop_fanout::underflows              0      0.00%      0.00% # Request fanout histogram
system.membus.snoop_fanout::0                   16965    100.00%    100.00% # Request fanout histogram
system.membus.snoop_fanout::1                       0      0.00%    100.00% # Request fanout histogram
system.membus.snoop_fanout::overflows               0      0.00%    100.00% # Request fanout histogram
system.membus.snoop_fanout::min_value               0                       # Request fanout histogram
system.membus.snoop_fanout::max_value               0                       # Request fanout histogram
system.membus.snoop_fanout::total               16965                       # Request fanout histogram
system.membus.reqLayer2.occupancy            16965000                       # Layer occupancy (ticks)
system.membus.reqLayer2.utilization               0.0                       # Layer utilization (%)
system.membus.respLayer1.occupancy           89446250                       # Layer occupancy (ticks)
system.membus.respLayer1.utilization              0.2                       # Layer utilization (%)
system.tol2bus.pwrStateResidencyTicks::UNDEFINED  38655261000                       # Cumulative time (in ticks) in various power states
system.tol2bus.trans_dist::ReadResp            389693                       # Transaction distribution
system.tol2bus.trans_dist::WritebackDirty       244349                       # Transaction distribution
system.tol2bus.trans_dist::WritebackClean       157269                       # Transaction distribution
system.tol2bus.trans_dist::CleanEvict           13668                       # Transaction distribution
system.tol2bus.trans_dist::UpgradeReq               1                       # Transaction distribution
system.tol2bus.trans_dist::UpgradeResp              1                       # Transaction distribution
system.tol2bus.trans_dist::ReadExReq            27589                       # Transaction distribution
system.tol2bus.trans_dist::ReadExResp           27589                       # Transaction distribution
system.tol2bus.trans_dist::ReadCleanReq        158242                       # Transaction distribution
system.tol2bus.trans_dist::ReadSharedReq       231452                       # Transaction distribution
system.tol2bus.pkt_count_system.cpu.icache.mem_side::system.l2.cpu_side       473751                       # Packet count per connected master and slave (bytes)
system.tol2bus.pkt_count_system.cpu.dcache.mem_side::system.l2.cpu_side       776101                       # Packet count per connected master and slave (bytes)
system.tol2bus.pkt_count::total               1249852                       # Packet count per connected master and slave (bytes)
system.tol2bus.pkt_size_system.cpu.icache.mem_side::system.l2.cpu_side     20192576                       # Cumulative packet size per connected master and slave (bytes)
system.tol2bus.pkt_size_system.cpu.dcache.mem_side::system.l2.cpu_side     32216960                       # Cumulative packet size per connected master and slave (bytes)
system.tol2bus.pkt_size::total               52409536                       # Cumulative packet size per connected master and slave (bytes)
system.tol2bus.snoops                               1                       # Total snoops (count)
system.tol2bus.snoopTraffic                        64                       # Total snoop traffic (bytes)
system.tol2bus.snoop_fanout::samples           417284                       # Request fanout histogram
system.tol2bus.snoop_fanout::mean            0.000563                       # Request fanout histogram
system.tol2bus.snoop_fanout::stdev           0.023724                       # Request fanout histogram
system.tol2bus.snoop_fanout::underflows             0      0.00%      0.00% # Request fanout histogram
system.tol2bus.snoop_fanout::0                 417049     99.94%     99.94% # Request fanout histogram
system.tol2bus.snoop_fanout::1                    235      0.06%    100.00% # Request fanout histogram
system.tol2bus.snoop_fanout::2                      0      0.00%    100.00% # Request fanout histogram
system.tol2bus.snoop_fanout::3                      0      0.00%    100.00% # Request fanout histogram
system.tol2bus.snoop_fanout::4                      0      0.00%    100.00% # Request fanout histogram
system.tol2bus.snoop_fanout::overflows              0      0.00%    100.00% # Request fanout histogram
system.tol2bus.snoop_fanout::min_value              0                       # Request fanout histogram
system.tol2bus.snoop_fanout::max_value              1                       # Request fanout histogram
system.tol2bus.snoop_fanout::total             417284                       # Request fanout histogram
system.tol2bus.reqLayer0.occupancy         1635806000                       # Layer occupancy (ticks)
system.tol2bus.reqLayer0.utilization              4.2                       # Layer utilization (%)
system.tol2bus.respLayer1.occupancy         777128995                       # Layer occupancy (ticks)
system.tol2bus.respLayer1.utilization             2.0                       # Layer utilization (%)
system.tol2bus.respLayer0.occupancy         474731991                       # Layer occupancy (ticks)
system.tol2bus.respLayer0.utilization             1.2                       # Layer utilization (%)
system.voltage_domain.voltage                       1                       # Voltage in Volts
system.clk_domain.clock                          1000                       # Clock period in ticks
system.l2.pwrStateResidencyTicks::UNDEFINED  38655261000                       # Cumulative time (in ticks) in various power states
system.l2.demand_hits::.cpu.inst               156518                       # number of demand (read+write) hits
system.l2.demand_hits::.cpu.data               243797                       # number of demand (read+write) hits
system.l2.demand_hits::total                   400315                       # number of demand (read+write) hits
system.l2.overall_hits::.cpu.inst              156518                       # number of overall hits
system.l2.overall_hits::.cpu.data              243797                       # number of overall hits
system.l2.overall_hits::total                  400315                       # number of overall hits
system.l2.demand_misses::.cpu.inst               1723                       # number of demand (read+write) misses
system.l2.demand_misses::.cpu.data              15244                       # number of demand (read+write) misses
system.l2.demand_misses::total                  16967                       # number of demand (read+write) misses
system.l2.overall_misses::.cpu.inst              1723                       # number of overall misses
system.l2.overall_misses::.cpu.data             15244                       # number of overall misses
system.l2.overall_misses::total                 16967                       # number of overall misses
system.l2.demand_miss_latency::.cpu.inst    168670000                       # number of demand (read+write) miss cycles
system.l2.demand_miss_latency::.cpu.data   1463264000                       # number of demand (read+write) miss cycles
system.l2.demand_miss_latency::total       1631934000                       # number of demand (read+write) miss cycles
system.l2.overall_miss_latency::.cpu.inst    168670000                       # number of overall miss cycles
system.l2.overall_miss_latency::.cpu.data   1463264000                       # number of overall miss cycles
system.l2.overall_miss_latency::total      1631934000                       # number of overall miss cycles
system.l2.demand_accesses::.cpu.inst           158241                       # number of demand (read+write) accesses
system.l2.demand_accesses::.cpu.data           259041                       # number of demand (read+write) accesses
system.l2.demand_accesses::total               417282                       # number of demand (read+write) accesses
system.l2.overall_accesses::.cpu.inst          158241                       # number of overall (read+write) accesses
system.l2.overall_accesses::.cpu.data          259041                       # number of overall (read+write) accesses
system.l2.overall_accesses::total              417282                       # number of overall (read+write) accesses
system.l2.demand_miss_rate::.cpu.inst        0.010888                       # miss rate for demand accesses
system.l2.demand_miss_rate::.cpu.data        0.058848                       # miss rate for demand accesses
system.l2.demand_miss_rate::total            0.040661                       # miss rate for demand accesses
system.l2.overall_miss_rate::.cpu.inst       0.010888                       # miss rate for overall accesses
system.l2.overall_miss_rate::.cpu.data       0.058848                       # miss rate for overall accesses
system.l2.overall_miss_rate::total           0.040661                       # miss rate for overall accesses
system.l2.demand_avg_miss_latency::.cpu.inst 97893.209518                       # average overall miss latency
system.l2.demand_avg_miss_latency::.cpu.data 95989.504067                       # average overall miss latency
system.l2.demand_avg_miss_latency::total 96182.825485                       # average overall miss latency
system.l2.overall_avg_miss_latency::.cpu.inst 97893.209518                       # average overall miss latency
system.l2.overall_avg_miss_latency::.cpu.data 95989.504067                       # average overall miss latency
system.l2.overall_avg_miss_latency::total 96182.825485                       # average overall miss latency
system.l2.blocked_cycles::no_mshrs                  0                       # number of cycles access was blocked
system.l2.blocked_cycles::no_targets                0                       # number of cycles access was blocked
system.l2.blocked::no_mshrs                         0                       # number of cycles access was blocked
system.l2.blocked::no_targets                       0                       # number of cycles access was blocked
system.l2.avg_blocked_cycles::no_mshrs            nan                       # average number of cycles each access was blocked
system.l2.avg_blocked_cycles::no_targets          nan                       # average number of cycles each access was blocked
system.l2.demand_mshr_hits::.cpu.data               1                       # number of demand (read+write) MSHR hits
system.l2.demand_mshr_hits::total                   1                       # number of demand (read+write) MSHR hits
system.l2.overall_mshr_hits::.cpu.data              1                       # number of overall MSHR hits
system.l2.overall_mshr_hits::total                  1                       # number of overall MSHR hits
system.l2.demand_mshr_misses::.cpu.inst          1723                       # number of demand (read+write) MSHR misses
system.l2.demand_mshr_misses::.cpu.data         15243                       # number of demand (read+write) MSHR misses
system.l2.demand_mshr_misses::total             16966                       # number of demand (read+write) MSHR misses
system.l2.overall_mshr_misses::.cpu.inst         1723                       # number of overall MSHR misses
system.l2.overall_mshr_misses::.cpu.data        15243                       # number of overall MSHR misses
system.l2.overall_mshr_misses::total            16966                       # number of overall MSHR misses
system.l2.demand_mshr_miss_latency::.cpu.inst    134230000                       # number of demand (read+write) MSHR miss cycles
system.l2.demand_mshr_miss_latency::.cpu.data   1158332000                       # number of demand (read+write) MSHR miss cycles
system.l2.demand_mshr_miss_latency::total   1292562000                       # number of demand (read+write) MSHR miss cycles
system.l2.overall_mshr_miss_latency::.cpu.inst    134230000                       # number of overall MSHR miss cycles
system.l2.overall_mshr_miss_latency::.cpu.data   1158332000                       # number of overall MSHR miss cycles
system.l2.overall_mshr_miss_latency::total   1292562000                       # number of overall MSHR miss cycles
system.l2.demand_mshr_miss_rate::.cpu.inst     0.010888                       # mshr miss rate for demand accesses
system.l2.demand_mshr_miss_rate::.cpu.data     0.058844                       # mshr miss rate for demand accesses
system.l2.demand_mshr_miss_rate::total       0.040658                       # mshr miss rate for demand accesses
system.l2.overall_mshr_miss_rate::.cpu.inst     0.010888                       # mshr miss rate for overall accesses
system.l2.overall_mshr_miss_rate::.cpu.data     0.058844                       # mshr miss rate for overall accesses
system.l2.overall_mshr_miss_rate::total      0.040658                       # mshr miss rate for overall accesses
system.l2.demand_avg_mshr_miss_latency::.cpu.inst 77904.817179                       # average overall mshr miss latency
system.l2.demand_avg_mshr_miss_latency::.cpu.data 75991.077872                       # average overall mshr miss latency
system.l2.demand_avg_mshr_miss_latency::total 76185.429683                       # average overall mshr miss latency
system.l2.overall_avg_mshr_miss_latency::.cpu.inst 77904.817179                       # average overall mshr miss latency
system.l2.overall_avg_mshr_miss_latency::.cpu.data 75991.077872                       # average overall mshr miss latency
system.l2.overall_avg_mshr_miss_latency::total 76185.429683                       # average overall mshr miss latency
system.l2.replacements                              0                       # number of replacements
system.l2.WritebackDirty_hits::.writebacks       244349                       # number of WritebackDirty hits
system.l2.WritebackDirty_hits::total           244349                       # number of WritebackDirty hits
system.l2.WritebackDirty_accesses::.writebacks       244349                       # number of WritebackDirty accesses(hits+misses)
system.l2.WritebackDirty_accesses::total       244349                       # number of WritebackDirty accesses(hits+misses)
system.l2.WritebackClean_hits::.writebacks       157269                       # number of WritebackClean hits
system.l2.WritebackClean_hits::total           157269                       # number of WritebackClean hits
system.l2.WritebackClean_accesses::.writebacks       157269                       # number of WritebackClean accesses(hits+misses)
system.l2.WritebackClean_accesses::total       157269                       # number of WritebackClean accesses(hits+misses)
system.l2.UpgradeReq_hits::.cpu.data                1                       # number of UpgradeReq hits
system.l2.UpgradeReq_hits::total                    1                       # number of UpgradeReq hits
system.l2.UpgradeReq_accesses::.cpu.data            1                       # number of UpgradeReq accesses(hits+misses)
system.l2.UpgradeReq_accesses::total                1                       # number of UpgradeReq accesses(hits+misses)
system.l2.ReadExReq_hits::.cpu.data             16695                       # number of ReadExReq hits
system.l2.ReadExReq_hits::total                 16695                       # number of ReadExReq hits
system.l2.ReadExReq_misses::.cpu.data           10894                       # number of ReadExReq misses
system.l2.ReadExReq_misses::total               10894                       # number of ReadExReq misses
system.l2.ReadExReq_miss_latency::.cpu.data   1032846000                       # number of ReadExReq miss cycles
system.l2.ReadExReq_miss_latency::total    1032846000                       # number of ReadExReq miss cycles
system.l2.ReadExReq_accesses::.cpu.data         27589                       # number of ReadExReq accesses(hits+misses)
system.l2.ReadExReq_accesses::total             27589                       # number of ReadExReq accesses(hits+misses)
system.l2.ReadExReq_miss_rate::.cpu.data     0.394868                       # miss rate for ReadExReq accesses
system.l2.ReadExReq_miss_rate::total         0.394868                       # miss rate for ReadExReq accesses
system.l2.ReadExReq_avg_miss_latency::.cpu.data 94808.702038                       # average ReadExReq miss latency
system.l2.ReadExReq_avg_miss_latency::total 94808.702038                       # average ReadExReq miss latency
system.l2.ReadExReq_mshr_misses::.cpu.data        10894                       # number of ReadExReq MSHR misses
system.l2.ReadExReq_mshr_misses::total          10894                       # number of ReadExReq MSHR misses
system.l2.ReadExReq_mshr_miss_latency::.cpu.data    814966000                       # number of ReadExReq MSHR miss cycles
system.l2.ReadExReq_mshr_miss_latency::total    814966000                       # number of ReadExReq MSHR miss cycles
system.l2.ReadExReq_mshr_miss_rate::.cpu.data     0.394868                       # mshr miss rate for ReadExReq accesses
system.l2.ReadExReq_mshr_miss_rate::total     0.394868                       # mshr miss rate for ReadExReq accesses
system.l2.ReadExReq_avg_mshr_miss_latency::.cpu.data 74808.702038                       # average ReadExReq mshr miss latency
system.l2.ReadExReq_avg_mshr_miss_latency::total 74808.702038                       # average ReadExReq mshr miss latency
system.l2.ReadCleanReq_hits::.cpu.inst         156518                       # number of ReadCleanReq hits
system.l2.ReadCleanReq_hits::total             156518                       # number of ReadCleanReq hits
system.l2.ReadCleanReq_misses::.cpu.inst         1723                       # number of ReadCleanReq misses
system.l2.ReadCleanReq_misses::total             1723                       # number of ReadCleanReq misses
system.l2.ReadCleanReq_miss_latency::.cpu.inst    168670000                       # number of ReadCleanReq miss cycles
system.l2.ReadCleanReq_miss_latency::total    168670000                       # number of ReadCleanReq miss cycles
system.l2.ReadCleanReq_accesses::.cpu.inst       158241                       # number of ReadCleanReq accesses(hits+misses)
system.l2.ReadCleanReq_accesses::total         158241                       # number of ReadCleanReq accesses(hits+misses)
system.l2.ReadCleanReq_miss_rate::.cpu.inst     0.010888                       # miss rate for ReadCleanReq accesses
system.l2.ReadCleanReq_miss_rate::total      0.010888                       # miss rate for ReadCleanReq accesses
system.l2.ReadCleanReq_avg_miss_latency::.cpu.inst 97893.209518                       # average ReadCleanReq miss latency
system.l2.ReadCleanReq_avg_miss_latency::total 97893.209518                       # average ReadCleanReq miss latency
system.l2.ReadCleanReq_mshr_misses::.cpu.inst         1723                       # number of ReadCleanReq MSHR misses
system.l2.ReadCleanReq_mshr_misses::total         1723                       # number of ReadCleanReq MSHR misses
system.l2.ReadCleanReq_mshr_miss_latency::.cpu.inst    134230000                       # number of ReadCleanReq MSHR miss cycles
system.l2.ReadCleanReq_mshr_miss_latency::total    134230000                       # number of ReadCleanReq MSHR miss cycles
system.l2.ReadCleanReq_mshr_miss_rate::.cpu.inst     0.010888                       # mshr miss rate for ReadCleanReq accesses
system.l2.ReadCleanReq_mshr_miss_rate::total     0.010888                       # mshr miss rate for ReadCleanReq accesses
system.l2.ReadCleanReq_avg_mshr_miss_latency::.cpu.inst 77904.817179                       # average ReadCleanReq mshr miss latency
system.l2.ReadCleanReq_avg_mshr_miss_latency::total 77904.817179                       # average ReadCleanReq mshr miss latency
system.l2.ReadSharedReq_hits::.cpu.data        227102                       # number of ReadSharedReq hits
system.l2.ReadSharedReq_hits::total            227102                       # number of ReadSharedReq hits
system.l2.ReadSharedReq_misses::.cpu.data         4350                       # number of ReadSharedReq misses
system.l2.ReadSharedReq_misses::total            4350                       # number of ReadSharedReq misses
system.l2.ReadSharedReq_miss_latency::.cpu.data    430418000                       # number of ReadSharedReq miss cycles
system.l2.ReadSharedReq_miss_latency::total    430418000                       # number of ReadSharedReq miss cycles
system.l2.ReadSharedReq_accesses::.cpu.data       231452                       # number of ReadSharedReq accesses(hits+misses)
system.l2.ReadSharedReq_accesses::total        231452                       # number of ReadSharedReq accesses(hits+misses)
system.l2.ReadSharedReq_miss_rate::.cpu.data     0.018794                       # miss rate for ReadSharedReq accesses
system.l2.ReadSharedReq_miss_rate::total     0.018794                       # miss rate for ReadSharedReq accesses
system.l2.ReadSharedReq_avg_miss_latency::.cpu.data 98946.666667                       # average ReadSharedReq miss latency
system.l2.ReadSharedReq_avg_miss_latency::total 98946.666667                       # average ReadSharedReq miss latency
system.l2.ReadSharedReq_mshr_hits::.cpu.data            1                       # number of ReadSharedReq MSHR hits
system.l2.ReadSharedReq_mshr_hits::total            1                       # number of ReadSharedReq MSHR hits
system.l2.ReadSharedReq_mshr_misses::.cpu.data         4349                       # number of ReadSharedReq MSHR misses
system.l2.ReadSharedReq_mshr_misses::total         4349                       # number of ReadSharedReq MSHR misses
system.l2.ReadSharedReq_mshr_miss_latency::.cpu.data    343366000                       # number of ReadSharedReq MSHR miss cycles
system.l2.ReadSharedReq_mshr_miss_latency::total    343366000                       # number of ReadSharedReq MSHR miss cycles
system.l2.ReadSharedReq_mshr_miss_rate::.cpu.data     0.018790                       # mshr miss rate for ReadSharedReq accesses
system.l2.ReadSharedReq_mshr_miss_rate::total     0.018790                       # mshr miss rate for ReadSharedReq accesses
system.l2.ReadSharedReq_avg_mshr_miss_latency::.cpu.data 78952.862727                       # average ReadSharedReq mshr miss latency
system.l2.ReadSharedReq_avg_mshr_miss_latency::total 78952.862727                       # average ReadSharedReq mshr miss latency
system.l2.tags.pwrStateResidencyTicks::UNDEFINED  38655261000                       # Cumulative time (in ticks) in various power states
system.l2.tags.tagsinuse                 10433.956265                       # Cycle average of tags in use
system.l2.tags.total_refs                      832424                       # Total number of references to valid blocks.
system.l2.tags.sampled_refs                     16965                       # Sample count of references to valid blocks.
system.l2.tags.avg_refs                     49.067138                       # Average number of references to valid blocks.
system.l2.tags.warmup_cycle                     86000                       # Cycle when the warmup percentage was hit.
system.l2.tags.occ_blocks::.cpu.inst      1447.751067                       # Average occupied blocks per requestor
system.l2.tags.occ_blocks::.cpu.data      8986.205198                       # Average occupied blocks per requestor
system.l2.tags.occ_percent::.cpu.inst        0.044182                       # Average percentage of cache occupancy
system.l2.tags.occ_percent::.cpu.data        0.274237                       # Average percentage of cache occupancy
system.l2.tags.occ_percent::total            0.318419                       # Average percentage of cache occupancy
system.l2.tags.occ_task_id_blocks::1024         16965                       # Occupied blocks per task id
system.l2.tags.age_task_id_blocks_1024::0           76                       # Occupied blocks per task id
system.l2.tags.age_task_id_blocks_1024::1            6                       # Occupied blocks per task id
system.l2.tags.age_task_id_blocks_1024::2          393                       # Occupied blocks per task id
system.l2.tags.age_task_id_blocks_1024::3         3935                       # Occupied blocks per task id
system.l2.tags.age_task_id_blocks_1024::4        12555                       # Occupied blocks per task id
system.l2.tags.occ_task_id_percent::1024     0.517731                       # Percentage of cache occupancy per task id
system.l2.tags.tag_accesses                   6676373                       # Number of tag accesses
system.l2.tags.data_accesses                  6676373                       # Number of data accesses
system.cpu_voltage_domain.voltage                   1                       # Voltage in Volts
system.mem_ctrls.pwrStateResidencyTicks::UNDEFINED  38655261000                       # Cumulative time (in ticks) in various power states
system.mem_ctrls.bytes_read::.cpu.inst         110208                       # Number of bytes read from this memory
system.mem_ctrls.bytes_read::.cpu.data         975552                       # Number of bytes read from this memory
system.mem_ctrls.bytes_read::total            1085760                       # Number of bytes read from this memory
system.mem_ctrls.bytes_inst_read::.cpu.inst       110208                       # Number of instructions bytes read from this memory
system.mem_ctrls.bytes_inst_read::total        110208                       # Number of instructions bytes read from this memory
system.mem_ctrls.num_reads::.cpu.inst            1722                       # Number of read requests responded to by this memory
system.mem_ctrls.num_reads::.cpu.data           15243                       # Number of read requests responded to by this memory
system.mem_ctrls.num_reads::total               16965                       # Number of read requests responded to by this memory
system.mem_ctrls.bw_read::.cpu.inst           2851048                       # Total read bandwidth from this memory (bytes/s)
system.mem_ctrls.bw_read::.cpu.data          25237237                       # Total read bandwidth from this memory (bytes/s)
system.mem_ctrls.bw_read::total              28088285                       # Total read bandwidth from this memory (bytes/s)
system.mem_ctrls.bw_inst_read::.cpu.inst      2851048                       # Instruction read bandwidth from this memory (bytes/s)
system.mem_ctrls.bw_inst_read::total          2851048                       # Instruction read bandwidth from this memory (bytes/s)
system.mem_ctrls.bw_total::.cpu.inst          2851048                       # Total bandwidth to/from this memory (bytes/s)
system.mem_ctrls.bw_total::.cpu.data         25237237                       # Total bandwidth to/from this memory (bytes/s)
system.mem_ctrls.bw_total::total             28088285                       # Total bandwidth to/from this memory (bytes/s)
system.mem_ctrls.avgPriority_.cpu.inst::samples      1722.00                       # Average QoS priority value for accepted requests
system.mem_ctrls.avgPriority_.cpu.data::samples     15243.00                       # Average QoS priority value for accepted requests
system.mem_ctrls.priorityMinLatency      0.000000018750                       # per QoS priority minimum request to response latency (s)
system.mem_ctrls.priorityMaxLatency      0.000000581000                       # per QoS priority maximum request to response latency (s)
system.mem_ctrls.numReadWriteTurnArounds            0                       # Number of turnarounds from READ to WRITE
system.mem_ctrls.numWriteReadTurnArounds            0                       # Number of turnarounds from WRITE to READ
system.mem_ctrls.numStayReadState               43824                       # Number of times bus staying in READ state
system.mem_ctrls.numStayWriteState                  0                       # Number of times bus staying in WRITE state
system.mem_ctrls.readReqs                       16965                       # Number of read requests accepted
system.mem_ctrls.writeReqs                          0                       # Number of write requests accepted
system.mem_ctrls.readBursts                     16965                       # Number of DRAM read bursts, including those serviced by the write queue
system.mem_ctrls.writeBursts                        0                       # Number of DRAM write bursts, including those merged in the write queue
system.mem_ctrls.servicedByWrQ                      0                       # Number of DRAM read bursts serviced by the write queue
system.mem_ctrls.mergedWrBursts                     0                       # Number of DRAM write bursts merged with an existing one
system.mem_ctrls.neitherReadNorWriteReqs            0                       # Number of requests that are neither read nor write
system.mem_ctrls.perBankRdBursts::0               969                       # Per bank write bursts
system.mem_ctrls.perBankRdBursts::1              1060                       # Per bank write bursts
system.mem_ctrls.perBankRdBursts::2              1042                       # Per bank write bursts
system.mem_ctrls.perBankRdBursts::3              1133                       # Per bank write bursts
system.mem_ctrls.perBankRdBursts::4              1282                       # Per bank write bursts
system.mem_ctrls.perBankRdBursts::5              1167                       # Per bank write bursts
system.mem_ctrls.perBankRdBursts::6              1021                       # Per bank write bursts
system.mem_ctrls.perBankRdBursts::7              1041                       # Per bank write bursts
system.mem_ctrls.perBankRdBursts::8              1107                       # Per bank write bursts
system.mem_ctrls.perBankRdBursts::9              1029                       # Per bank write bursts
system.mem_ctrls.perBankRdBursts::10              923                       # Per bank write bursts
system.mem_ctrls.perBankRdBursts::11             1086                       # Per bank write bursts
system.mem_ctrls.perBankRdBursts::12             1262                       # Per bank write bursts
system.mem_ctrls.perBankRdBursts::13             1061                       # Per bank write bursts
system.mem_ctrls.perBankRdBursts::14              917                       # Per bank write bursts
system.mem_ctrls.perBankRdBursts::15              865                       # Per bank write bursts
system.mem_ctrls.perBankWrBursts::0                 0                       # Per bank write bursts
system.mem_ctrls.perBankWrBursts::1                 0                       # Per bank write bursts
system.mem_ctrls.perBankWrBursts::2                 0                       # Per bank write bursts
system.mem_ctrls.perBankWrBursts::3                 0                       # Per bank write bursts
system.mem_ctrls.perBankWrBursts::4                 0                       # Per bank write bursts
system.mem_ctrls.perBankWrBursts::5                 0                       # Per bank write bursts
system.mem_ctrls.perBankWrBursts::6                 0                       # Per bank write bursts
system.mem_ctrls.perBankWrBursts::7                 0                       # Per bank write bursts
system.mem_ctrls.perBankWrBursts::8                 0                       # Per bank write bursts
system.mem_ctrls.perBankWrBursts::9                 0                       # Per bank write bursts
system.mem_ctrls.perBankWrBursts::10                0                       # Per bank write bursts
[...]
system.cpu.interrupts.clk_domain.clock          16000                       # Clock period in ticks
system.cpu.itb_walker_cache.pwrStateResidencyTicks::UNDEFINED  38655261000                       # Cumulative time (in ticks) in various power states
system.cpu.itb_walker_cache.blocked_cycles::no_mshrs            0                       # number of cycles access was blocked
system.cpu.itb_walker_cache.blocked_cycles::no_targets            0                       # number of cycles access was blocked
system.cpu.itb_walker_cache.blocked::no_mshrs            0                       # number of cycles access was blocked
system.cpu.itb_walker_cache.blocked::no_targets            0                       # number of cycles access was blocked
system.cpu.itb_walker_cache.avg_blocked_cycles::no_mshrs          nan                       # average number of cycles each access was blocked
system.cpu.itb_walker_cache.avg_blocked_cycles::no_targets          nan                       # average number of cycles each access was blocked
system.cpu.itb_walker_cache.replacements            0                       # number of replacements
system.cpu.itb_walker_cache.tags.pwrStateResidencyTicks::UNDEFINED  38655261000                       # Cumulative time (in ticks) in various power states
system.cpu.itb_walker_cache.tags.tagsinuse            0                       # Cycle average of tags in use
system.cpu.itb_walker_cache.tags.total_refs            0                       # Total number of references to valid blocks.
system.cpu.itb_walker_cache.tags.sampled_refs            0                       # Sample count of references to valid blocks.
system.cpu.itb_walker_cache.tags.avg_refs          nan                       # Average number of references to valid blocks.
system.cpu.itb_walker_cache.tags.warmup_cycle            0                       # Cycle when the warmup percentage was hit.
system.cpu.itb_walker_cache.tags.tag_accesses            0                       # Number of tag accesses
system.cpu.itb_walker_cache.tags.data_accesses            0                       # Number of data accesses
system.cpu.itb.walker.pwrStateResidencyTicks::UNDEFINED  38655261000                       # Cumulative time (in ticks) in various power states
system.cpu.dtb_walker_cache.pwrStateResidencyTicks::UNDEFINED  38655261000                       # Cumulative time (in ticks) in various power states
system.cpu.dtb_walker_cache.blocked_cycles::no_mshrs            0                       # number of cycles access was blocked
system.cpu.dtb_walker_cache.blocked_cycles::no_targets            0                       # number of cycles access was blocked
system.cpu.dtb_walker_cache.blocked::no_mshrs            0                       # number of cycles access was blocked
system.cpu.dtb_walker_cache.blocked::no_targets            0                       # number of cycles access was blocked
system.cpu.dtb_walker_cache.avg_blocked_cycles::no_mshrs          nan                       # average number of cycles each access was blocked
system.cpu.dtb_walker_cache.avg_blocked_cycles::no_targets          nan                       # average number of cycles each access was blocked
system.cpu.dtb_walker_cache.replacements            0                       # number of replacements
system.cpu.dtb_walker_cache.tags.pwrStateResidencyTicks::UNDEFINED  38655261000                       # Cumulative time (in ticks) in various power states
system.cpu.dtb_walker_cache.tags.tagsinuse            0                       # Cycle average of tags in use
system.cpu.dtb_walker_cache.tags.total_refs            0                       # Total number of references to valid blocks.
system.cpu.dtb_walker_cache.tags.sampled_refs            0                       # Sample count of references to valid blocks.
system.cpu.dtb_walker_cache.tags.avg_refs          nan                       # Average number of references to valid blocks.
system.cpu.dtb_walker_cache.tags.warmup_cycle            0                       # Cycle when the warmup percentage was hit.
system.cpu.dtb_walker_cache.tags.tag_accesses            0                       # Number of tag accesses
system.cpu.dtb_walker_cache.tags.data_accesses            0                       # Number of data accesses
system.cpu.dcache.pwrStateResidencyTicks::UNDEFINED  38655261000                       # Cumulative time (in ticks) in various power states
system.cpu.dcache.demand_hits::.cpu.data     25624542                       # number of demand (read+write) hits
system.cpu.dcache.demand_hits::total         25624542                       # number of demand (read+write) hits
system.cpu.dcache.overall_hits::.cpu.data     25624571                       # number of overall hits
system.cpu.dcache.overall_hits::total        25624571                       # number of overall hits
system.cpu.dcache.demand_misses::.cpu.data       692336                       # number of demand (read+write) misses
system.cpu.dcache.demand_misses::total         692336                       # number of demand (read+write) misses
system.cpu.dcache.overall_misses::.cpu.data       695809                       # number of overall misses
system.cpu.dcache.overall_misses::total        695809                       # number of overall misses
system.cpu.dcache.demand_miss_latency::.cpu.data  15307779991                       # number of demand (read+write) miss cycles
system.cpu.dcache.demand_miss_latency::total  15307779991                       # number of demand (read+write) miss cycles
system.cpu.dcache.overall_miss_latency::.cpu.data  15307779991                       # number of overall miss cycles
system.cpu.dcache.overall_miss_latency::total  15307779991                       # number of overall miss cycles
system.cpu.dcache.demand_accesses::.cpu.data     26316878                       # number of demand (read+write) accesses
system.cpu.dcache.demand_accesses::total     26316878                       # number of demand (read+write) accesses
system.cpu.dcache.overall_accesses::.cpu.data     26320380                       # number of overall (read+write) accesses
system.cpu.dcache.overall_accesses::total     26320380                       # number of overall (read+write) accesses
system.cpu.dcache.demand_miss_rate::.cpu.data     0.026308                       # miss rate for demand accesses
system.cpu.dcache.demand_miss_rate::total     0.026308                       # miss rate for demand accesses
system.cpu.dcache.overall_miss_rate::.cpu.data     0.026436                       # miss rate for overall accesses
system.cpu.dcache.overall_miss_rate::total     0.026436                       # miss rate for overall accesses
system.cpu.dcache.demand_avg_miss_latency::.cpu.data 22110.333698                       # average overall miss latency
system.cpu.dcache.demand_avg_miss_latency::total 22110.333698                       # average overall miss latency
system.cpu.dcache.overall_avg_miss_latency::.cpu.data 21999.974118                       # average overall miss latency
system.cpu.dcache.overall_avg_miss_latency::total 21999.974118                       # average overall miss latency
system.cpu.dcache.blocked_cycles::no_mshrs        55927                       # number of cycles access was blocked
system.cpu.dcache.blocked_cycles::no_targets           38                       # number of cycles access was blocked
system.cpu.dcache.blocked::no_mshrs              2978                       # number of cycles access was blocked
system.cpu.dcache.blocked::no_targets               4                       # number of cycles access was blocked
system.cpu.dcache.avg_blocked_cycles::no_mshrs    18.780054                       # average number of cycles each access was blocked
system.cpu.dcache.avg_blocked_cycles::no_targets     9.500000                       # average number of cycles each access was blocked
system.cpu.dcache.writebacks::.writebacks       244349                       # number of writebacks
system.cpu.dcache.writebacks::total            244349                       # number of writebacks
system.cpu.dcache.demand_mshr_hits::.cpu.data       436767                       # number of demand (read+write) MSHR hits
system.cpu.dcache.demand_mshr_hits::total       436767                       # number of demand (read+write) MSHR hits
system.cpu.dcache.overall_mshr_hits::.cpu.data       436767                       # number of overall MSHR hits
system.cpu.dcache.overall_mshr_hits::total       436767                       # number of overall MSHR hits
system.cpu.dcache.demand_mshr_misses::.cpu.data       255569                       # number of demand (read+write) MSHR misses
system.cpu.dcache.demand_mshr_misses::total       255569                       # number of demand (read+write) MSHR misses
system.cpu.dcache.overall_mshr_misses::.cpu.data       259042                       # number of overall MSHR misses
system.cpu.dcache.overall_mshr_misses::total       259042                       # number of overall MSHR misses
system.cpu.dcache.demand_mshr_miss_latency::.cpu.data   7154418991                       # number of demand (read+write) MSHR miss cycles
system.cpu.dcache.demand_mshr_miss_latency::total   7154418991                       # number of demand (read+write) MSHR miss cycles
system.cpu.dcache.overall_mshr_miss_latency::.cpu.data   7376162991                       # number of overall MSHR miss cycles
system.cpu.dcache.overall_mshr_miss_latency::total   7376162991                       # number of overall MSHR miss cycles
system.cpu.dcache.demand_mshr_miss_rate::.cpu.data     0.009711                       # mshr miss rate for demand accesses
system.cpu.dcache.demand_mshr_miss_rate::total     0.009711                       # mshr miss rate for demand accesses
system.cpu.dcache.overall_mshr_miss_rate::.cpu.data     0.009842                       # mshr miss rate for overall accesses
system.cpu.dcache.overall_mshr_miss_rate::total     0.009842                       # mshr miss rate for overall accesses
system.cpu.dcache.demand_avg_mshr_miss_latency::.cpu.data 27994.079841                       # average overall mshr miss latency
system.cpu.dcache.demand_avg_mshr_miss_latency::total 27994.079841                       # average overall mshr miss latency
system.cpu.dcache.overall_avg_mshr_miss_latency::.cpu.data 28474.776256                       # average overall mshr miss latency
system.cpu.dcache.overall_avg_mshr_miss_latency::total 28474.776256                       # average overall mshr miss latency
system.cpu.dcache.replacements                 258017                       # number of replacements
system.cpu.dcache.ReadReq_hits::.cpu.data     16606273                       # number of ReadReq hits
system.cpu.dcache.ReadReq_hits::total        16606273                       # number of ReadReq hits
system.cpu.dcache.ReadReq_misses::.cpu.data       664621                       # number of ReadReq misses
system.cpu.dcache.ReadReq_misses::total        664621                       # number of ReadReq misses
system.cpu.dcache.ReadReq_miss_latency::.cpu.data  13782352000                       # number of ReadReq miss cycles
system.cpu.dcache.ReadReq_miss_latency::total  13782352000                       # number of ReadReq miss cycles
system.cpu.dcache.ReadReq_accesses::.cpu.data     17270894                       # number of ReadReq accesses(hits+misses)
system.cpu.dcache.ReadReq_accesses::total     17270894                       # number of ReadReq accesses(hits+misses)
system.cpu.dcache.ReadReq_miss_rate::.cpu.data     0.038482                       # miss rate for ReadReq accesses
system.cpu.dcache.ReadReq_miss_rate::total     0.038482                       # miss rate for ReadReq accesses
system.cpu.dcache.ReadReq_avg_miss_latency::.cpu.data 20737.159975                       # average ReadReq miss latency
system.cpu.dcache.ReadReq_avg_miss_latency::total 20737.159975                       # average ReadReq miss latency
system.cpu.dcache.ReadReq_mshr_hits::.cpu.data       436642                       # number of ReadReq MSHR hits
system.cpu.dcache.ReadReq_mshr_hits::total       436642                       # number of ReadReq MSHR hits
system.cpu.dcache.ReadReq_mshr_misses::.cpu.data       227979                       # number of ReadReq MSHR misses
system.cpu.dcache.ReadReq_mshr_misses::total       227979                       # number of ReadReq MSHR misses
system.cpu.dcache.ReadReq_mshr_miss_latency::.cpu.data   5686202000                       # number of ReadReq MSHR miss cycles
system.cpu.dcache.ReadReq_mshr_miss_latency::total   5686202000                       # number of ReadReq MSHR miss cycles
system.cpu.dcache.ReadReq_mshr_miss_rate::.cpu.data     0.013200                       # mshr miss rate for ReadReq accesses
system.cpu.dcache.ReadReq_mshr_miss_rate::total     0.013200                       # mshr miss rate for ReadReq accesses
system.cpu.dcache.ReadReq_avg_mshr_miss_latency::.cpu.data 24941.779725                       # average ReadReq mshr miss latency
system.cpu.dcache.ReadReq_avg_mshr_miss_latency::total 24941.779725                       # average ReadReq mshr miss latency
system.cpu.dcache.WriteReq_hits::.cpu.data      9018269                       # number of WriteReq hits
system.cpu.dcache.WriteReq_hits::total        9018269                       # number of WriteReq hits
system.cpu.dcache.WriteReq_misses::.cpu.data        27715                       # number of WriteReq misses
system.cpu.dcache.WriteReq_misses::total        27715                       # number of WriteReq misses
system.cpu.dcache.WriteReq_miss_latency::.cpu.data   1525427991                       # number of WriteReq miss cycles
system.cpu.dcache.WriteReq_miss_latency::total   1525427991                       # number of WriteReq miss cycles
system.cpu.dcache.WriteReq_accesses::.cpu.data      9045984                       # number of WriteReq accesses(hits+misses)
system.cpu.dcache.WriteReq_accesses::total      9045984                       # number of WriteReq accesses(hits+misses)
system.cpu.dcache.WriteReq_miss_rate::.cpu.data     0.003064                       # miss rate for WriteReq accesses
system.cpu.dcache.WriteReq_miss_rate::total     0.003064                       # miss rate for WriteReq accesses
system.cpu.dcache.WriteReq_avg_miss_latency::.cpu.data 55039.797619                       # average WriteReq miss latency
system.cpu.dcache.WriteReq_avg_miss_latency::total 55039.797619                       # average WriteReq miss latency
system.cpu.dcache.WriteReq_mshr_hits::.cpu.data          125                       # number of WriteReq MSHR hits
system.cpu.dcache.WriteReq_mshr_hits::total          125                       # number of WriteReq MSHR hits
system.cpu.dcache.WriteReq_mshr_misses::.cpu.data        27590                       # number of WriteReq MSHR misses
system.cpu.dcache.WriteReq_mshr_misses::total        27590                       # number of WriteReq MSHR misses
system.cpu.dcache.WriteReq_mshr_miss_latency::.cpu.data   1468216991                       # number of WriteReq MSHR miss cycles
system.cpu.dcache.WriteReq_mshr_miss_latency::total   1468216991                       # number of WriteReq MSHR miss cycles
system.cpu.dcache.WriteReq_mshr_miss_rate::.cpu.data     0.003050                       # mshr miss rate for WriteReq accesses
system.cpu.dcache.WriteReq_mshr_miss_rate::total     0.003050                       # mshr miss rate for WriteReq accesses
system.cpu.dcache.WriteReq_avg_mshr_miss_latency::.cpu.data 53215.548786                       # average WriteReq mshr miss latency
system.cpu.dcache.WriteReq_avg_mshr_miss_latency::total 53215.548786                       # average WriteReq mshr miss latency
system.cpu.dcache.SoftPFReq_hits::.cpu.data           29                       # number of SoftPFReq hits
system.cpu.dcache.SoftPFReq_hits::total            29                       # number of SoftPFReq hits
system.cpu.dcache.SoftPFReq_misses::.cpu.data         3473                       # number of SoftPFReq misses
system.cpu.dcache.SoftPFReq_misses::total         3473                       # number of SoftPFReq misses
system.cpu.dcache.SoftPFReq_accesses::.cpu.data         3502                       # number of SoftPFReq accesses(hits+misses)
system.cpu.dcache.SoftPFReq_accesses::total         3502                       # number of SoftPFReq accesses(hits+misses)
system.cpu.dcache.SoftPFReq_miss_rate::.cpu.data     0.991719                       # miss rate for SoftPFReq accesses
system.cpu.dcache.SoftPFReq_miss_rate::total     0.991719                       # miss rate for SoftPFReq accesses
system.cpu.dcache.SoftPFReq_mshr_misses::.cpu.data         3473                       # number of SoftPFReq MSHR misses
system.cpu.dcache.SoftPFReq_mshr_misses::total         3473                       # number of SoftPFReq MSHR misses
system.cpu.dcache.SoftPFReq_mshr_miss_latency::.cpu.data    221744000                       # number of SoftPFReq MSHR miss cycles
system.cpu.dcache.SoftPFReq_mshr_miss_latency::total    221744000                       # number of SoftPFReq MSHR miss cycles
system.cpu.dcache.SoftPFReq_mshr_miss_rate::.cpu.data     0.991719                       # mshr miss rate for SoftPFReq accesses
system.cpu.dcache.SoftPFReq_mshr_miss_rate::total     0.991719                       # mshr miss rate for SoftPFReq accesses
system.cpu.dcache.SoftPFReq_avg_mshr_miss_latency::.cpu.data 63847.970055                       # average SoftPFReq mshr miss latency
system.cpu.dcache.SoftPFReq_avg_mshr_miss_latency::total 63847.970055                       # average SoftPFReq mshr miss latency
system.cpu.dcache.tags.pwrStateResidencyTicks::UNDEFINED  38655261000                       # Cumulative time (in ticks) in various power states
system.cpu.dcache.tags.tagsinuse          1021.819472                       # Cycle average of tags in use
system.cpu.dcache.tags.total_refs            25883613                       # Total number of references to valid blocks.
system.cpu.dcache.tags.sampled_refs            259041                       # Sample count of references to valid blocks.
system.cpu.dcache.tags.avg_refs             99.920912                       # Average number of references to valid blocks.
system.cpu.dcache.tags.warmup_cycle            223000                       # Cycle when the warmup percentage was hit.
system.cpu.dcache.tags.occ_blocks::.cpu.data  1021.819472                       # Average occupied blocks per requestor
system.cpu.dcache.tags.occ_percent::.cpu.data     0.997871                       # Average percentage of cache occupancy
system.cpu.dcache.tags.occ_percent::total     0.997871                       # Average percentage of cache occupancy
system.cpu.dcache.tags.occ_task_id_blocks::1024         1024                       # Occupied blocks per task id
system.cpu.dcache.tags.age_task_id_blocks_1024::0           63                       # Occupied blocks per task id
system.cpu.dcache.tags.age_task_id_blocks_1024::1          572                       # Occupied blocks per task id
system.cpu.dcache.tags.age_task_id_blocks_1024::2          240                       # Occupied blocks per task id
system.cpu.dcache.tags.age_task_id_blocks_1024::3           59                       # Occupied blocks per task id
system.cpu.dcache.tags.age_task_id_blocks_1024::4           90                       # Occupied blocks per task id
system.cpu.dcache.tags.occ_task_id_percent::1024            1                       # Percentage of cache occupancy per task id
system.cpu.dcache.tags.tag_accesses          52899801                       # Number of tag accesses
system.cpu.dcache.tags.data_accesses         52899801                       # Number of data accesses

---------- End Simulation Statistics   ----------
