
---------- Begin Simulation Statistics ----------
final_tick                                38622188000                       # Number of ticks from beginning of simulation (restored from checkpoints and never reset)
host_inst_rate                                 160639                       # Simulator instruction rate (inst/s)
host_mem_usage                                 842548                       # Number of bytes of host memory used
host_op_rate                                   269709                       # Simulator op (including micro ops) rate (op/s)
host_seconds                                   361.25                       # Real time elapsed on the host
host_tick_rate                              106911750                       # Simulator tick rate (ticks/s)
sim_freq                                 1000000000000                       # Frequency of simulated ticks
sim_insts                                    58031203                       # Number of instructions simulated
sim_ops                                      97433054                       # Number of ops (including micro ops) simulated
sim_seconds                                  0.038622                       # Number of seconds simulated
sim_ticks                                 38622188000                       # Number of ticks simulated
system.cpu.branchPred.BTBCorrect                    0                       # Number of correct BTB predictions (this stat may not work properly.
system.cpu.branchPred.BTBHitPct              0.000000                       # BTB Hit Percentage
system.cpu.branchPred.BTBHits                       0                       # Number of BTB hits
system.cpu.branchPred.BTBLookups              7221363                       # Number of BTB lookups
system.cpu.branchPred.RASInCorrect                 37                       # Number of incorrect RAS predictions.
system.cpu.branchPred.condIncorrect            413059                       # Number of conditional branches incorrect
system.cpu.branchPred.condPredicted           7444210                       # Number of conditional branches predicted
system.cpu.branchPred.indirectHits            4393445                       # Number of indirect target hits.
system.cpu.branchPred.indirectLookups         7221363                       # Number of indirect predictor lookups.
system.cpu.branchPred.indirectMisses          2827918                       # Number of indirect misses.
system.cpu.branchPred.lookups                 8401047                       # Number of BP lookups
system.cpu.branchPred.usedRAS                  471289                       # Number of times the RAS was used to get a target.
system.cpu.branchPredindirectMispredicted       267744                       # Number of mispredicted indirect branches.
system.cpu.cc_regfile_reads                  36450304                       # number of cc regfile reads
system.cpu.cc_regfile_writes                 27744518                       # number of cc regfile writes
system.cpu.commit.amos                              0                       # Number of atomic instructions committed
system.cpu.commit.branchMispredicts            413107                       # The number of times a branch was mispredicted
system.cpu.commit.branches                    6128620                       # Number of branches committed
system.cpu.commit.bw_lim_events               7003325                       # number cycles where commit BW limit reached
system.cpu.commit.commitNonSpecStalls             342                       # The number of times commit has been forced to stall to communicate backwards
system.cpu.commit.commitSquashedInsts        12203056                       # The number of squashed insts skipped by commit
system.cpu.commit.committedInsts             58031203                       # Number of instructions committed
system.cpu.commit.committedOps               97433054                       # Number of ops (including micro ops) committed
system.cpu.commit.committed_per_cycle::samples     36727318                       # Number of insts commited each cycle
system.cpu.commit.committed_per_cycle::mean     2.652877                       # Number of insts commited each cycle
system.cpu.commit.committed_per_cycle::stdev     3.067771                       # Number of insts commited each cycle
system.cpu.commit.committed_per_cycle::underflows            0      0.00%      0.00% # Number of insts commited each cycle
system.cpu.commit.committed_per_cycle::0     14339515     39.04%     39.04% # Number of insts commited each cycle
system.cpu.commit.committed_per_cycle::1      4434794     12.07%     51.12% # Number of insts commited each cycle
system.cpu.commit.committed_per_cycle::2      4422996     12.04%     63.16% # Number of insts commited each cycle
system.cpu.commit.committed_per_cycle::3      2825061      7.69%     70.85% # Number of insts commited each cycle
system.cpu.commit.committed_per_cycle::4      1205858      3.28%     74.14% # Number of insts commited each cycle
system.cpu.commit.committed_per_cycle::5       569183      1.55%     75.69% # Number of insts commited each cycle
system.cpu.commit.committed_per_cycle::6      1504964      4.10%     79.78% # Number of insts commited each cycle
system.cpu.commit.committed_per_cycle::7       421622      1.15%     80.93% # Number of insts commited each cycle
system.cpu.commit.committed_per_cycle::8      7003325     19.07%    100.00% # Number of insts commited each cycle
system.cpu.commit.committed_per_cycle::overflows            0      0.00%    100.00% # Number of insts commited each cycle
system.cpu.commit.committed_per_cycle::min_value            0                       # Number of insts commited each cycle
system.cpu.commit.committed_per_cycle::max_value            8                       # Number of insts commited each cycle
system.cpu.commit.committed_per_cycle::total     36727318                       # Number of insts commited each cycle
system.cpu.commit.fp_insts                   15257866                       # Number of committed floating point instructions.
system.cpu.commit.function_calls               331381                       # Number of function calls committed.
system.cpu.commit.int_insts                  88475678                       # Number of committed integer instructions.
system.cpu.commit.loads                      29041349                       # Number of loads committed
system.cpu.commit.membars                           0                       # Number of memory barriers committed
system.cpu.commit.op_class_0::No_OpClass       396158      0.41%      0.41% # Class of committed instruction
system.cpu.commit.op_class_0::IntAlu         49791704     51.10%     51.51% # Class of committed instruction
system.cpu.commit.op_class_0::IntMult           41115      0.04%     51.55% # Class of committed instruction
system.cpu.commit.op_class_0::IntDiv           555804      0.57%     52.12% # Class of committed instruction
system.cpu.commit.op_class_0::FloatAdd        4888605      5.02%     57.14% # Class of committed instruction
system.cpu.commit.op_class_0::FloatCmp              0      0.00%     57.14% # Class of committed instruction
system.cpu.commit.op_class_0::FloatCvt            240      0.00%     57.14% # Class of committed instruction
system.cpu.commit.op_class_0::FloatMult             0      0.00%     57.14% # Class of committed instruction
system.cpu.commit.op_class_0::FloatMultAcc            0      0.00%     57.14% # Class of committed instruction
system.cpu.commit.op_class_0::FloatDiv              0      0.00%     57.14% # Class of committed instruction
system.cpu.commit.op_class_0::FloatMisc             0      0.00%     57.14% # Class of committed instruction
system.cpu.commit.op_class_0::FloatSqrt             0      0.00%     57.14% # Class of committed instruction
system.cpu.commit.op_class_0::SimdAdd               0      0.00%     57.14% # Class of committed instruction
system.cpu.commit.op_class_0::SimdAddAcc            0      0.00%     57.14% # Class of committed instruction
system.cpu.commit.op_class_0::SimdAlu           55888      0.06%     57.20% # Class of committed instruction
system.cpu.commit.op_class_0::SimdCmp               0      0.00%     57.20% # Class of committed instruction
system.cpu.commit.op_class_0::SimdCvt           74006      0.08%     57.27% # Class of committed instruction
system.cpu.commit.op_class_0::SimdMisc         211704      0.22%     57.49% # Class of committed instruction
system.cpu.commit.op_class_0::SimdMult              0      0.00%     57.49% # Class of committed instruction
system.cpu.commit.op_class_0::SimdMultAcc            0      0.00%     57.49% # Class of committed instruction
system.cpu.commit.op_class_0::SimdShift             0      0.00%     57.49% # Class of committed instruction
system.cpu.commit.op_class_0::SimdShiftAcc            0      0.00%     57.49% # Class of committed instruction
system.cpu.commit.op_class_0::SimdDiv               0      0.00%     57.49% # Class of committed instruction
system.cpu.commit.op_class_0::SimdSqrt              0      0.00%     57.49% # Class of committed instruction
system.cpu.commit.op_class_0::SimdFloatAdd      1642100      1.69%     59.18% # Class of committed instruction
system.cpu.commit.op_class_0::SimdFloatAlu            0      0.00%     59.18% # Class of committed instruction
system.cpu.commit.op_class_0::SimdFloatCmp            0      0.00%     59.18% # Class of committed instruction
system.cpu.commit.op_class_0::SimdFloatCvt        23310      0.02%     59.20% # Class of committed instruction
system.cpu.commit.op_class_0::SimdFloatDiv        19110      0.02%     59.22% # Class of committed instruction
system.cpu.commit.op_class_0::SimdFloatMisc            0      0.00%     59.22% # Class of committed instruction
system.cpu.commit.op_class_0::SimdFloatMult      1646080      1.69%     60.91% # Class of committed instruction
system.cpu.commit.op_class_0::SimdFloatMultAcc            0      0.00%     60.91% # Class of committed instruction
system.cpu.commit.op_class_0::SimdFloatSqrt            0      0.00%     60.91% # Class of committed instruction
system.cpu.commit.op_class_0::SimdReduceAdd            0      0.00%     60.91% # Class of committed instruction
system.cpu.commit.op_class_0::SimdReduceAlu            0      0.00%     60.91% # Class of committed instruction
system.cpu.commit.op_class_0::SimdReduceCmp            0      0.00%     60.91% # Class of committed instruction
system.cpu.commit.op_class_0::SimdFloatReduceAdd            0      0.00%     60.91% # Class of committed instruction
system.cpu.commit.op_class_0::SimdFloatReduceCmp            0      0.00%     60.91% # Class of committed instruction
system.cpu.commit.op_class_0::SimdAes               0      0.00%     60.91% # Class of committed instruction
system.cpu.commit.op_class_0::SimdAesMix            0      0.00%     60.91% # Class of committed instruction
system.cpu.commit.op_class_0::SimdSha1Hash            0      0.00%     60.91% # Class of committed instruction
system.cpu.commit.op_class_0::SimdSha1Hash2            0      0.00%     60.91% # Class of committed instruction
system.cpu.commit.op_class_0::SimdSha256Hash            0      0.00%     60.91% # Class of committed instruction
system.cpu.commit.op_class_0::SimdSha256Hash2            0      0.00%     60.91% # Class of committed instruction
system.cpu.commit.op_class_0::SimdShaSigma2            0      0.00%     60.91% # Class of committed instruction
system.cpu.commit.op_class_0::SimdShaSigma3            0      0.00%     60.91% # Class of committed instruction
system.cpu.commit.op_class_0::SimdPredAlu            0      0.00%     60.91% # Class of committed instruction
system.cpu.commit.op_class_0::MemRead        24082189     24.72%     85.63% # Class of committed instruction
system.cpu.commit.op_class_0::MemWrite        7400535      7.60%     93.22% # Class of committed instruction
system.cpu.commit.op_class_0::FloatMemRead      4959160      5.09%     98.31% # Class of committed instruction
system.cpu.commit.op_class_0::FloatMemWrite      1645346      1.69%    100.00% # Class of committed instruction
system.cpu.commit.op_class_0::IprAccess             0      0.00%    100.00% # Class of committed instruction
system.cpu.commit.op_class_0::InstPrefetch            0      0.00%    100.00% # Class of committed instruction
system.cpu.commit.op_class_0::total          97433054                       # Class of committed instruction
system.cpu.commit.refs                       38087230                       # Number of memory references committed
system.cpu.commit.swp_count                         0                       # Number of s/w prefetches committed
system.cpu.commit.vec_insts                         0                       # Number of committed Vector instructions.
system.cpu.committedInsts                    58031203                       # Number of Instructions Simulated
system.cpu.committedOps                      97433054                       # Number of Ops (including micro ops) Simulated
system.cpu.cpi                               0.665542                       # CPI: Cycles Per Instruction
system.cpu.cpi_total                         0.665542                       # CPI: Total CPI of All Threads
system.cpu.decode.BlockedCycles              13028238                       # Number of cycles decode is blocked
system.cpu.decode.DecodedInsts              115008047                       # Number of instructions handled by decode
system.cpu.decode.IdleCycles                  8861075                       # Number of cycles decode is idle
system.cpu.decode.RunCycles                  12414452                       # Number of cycles decode is running
system.cpu.decode.SquashCycles                 417482                       # Number of cycles decode is squashing
system.cpu.decode.UnblockCycles               3801109                       # Number of cycles decode is unblocking
system.cpu.dtb.rdAccesses                    29796170                       # TLB accesses on read requests
system.cpu.dtb.rdMisses                         14605                       # TLB misses on read requests
system.cpu.dtb.wrAccesses                     9290472                       # TLB accesses on write requests
system.cpu.dtb.wrMisses                          3095                       # TLB misses on write requests
system.cpu.fetch.Branches                     8401047                       # Number of branches that fetch encountered
system.cpu.fetch.CacheLines                   7622841                       # Number of cache lines fetched
system.cpu.fetch.Cycles                      26918171                       # Number of cycles fetch has run and was not squashing or blocked
system.cpu.fetch.IcacheSquashes                141590                       # Number of outstanding Icache misses that were squashed
system.cpu.fetch.Insts                       68159834                       # Number of instructions fetch has processed
system.cpu.fetch.MiscStallCycles                   85                       # Number of cycles fetch has spent waiting on interrupts, or bad addresses, or out of MSHRs
system.cpu.fetch.PendingQuiesceStallCycles          407                       # Number of stall cycles due to pending quiesce instructions
system.cpu.fetch.PendingTrapStallCycles           505                       # Number of stall cycles due to pending traps
system.cpu.fetch.SquashCycles                  834964                       # Number of cycles fetch has spent squashing
system.cpu.fetch.branchRate                  0.217519                       # Number of branch fetches per cycle
system.cpu.fetch.icacheStallCycles           11185706                       # Number of cycles fetch is stalled on an Icache miss
system.cpu.fetch.predictedBranches            4864734                       # Number of branches that fetch has predicted taken
system.cpu.fetch.rate                        1.764784                       # Number of inst fetches per cycle
system.cpu.fetch.rateDist::samples           38522356                       # Number of instructions fetched each cycle (Total)
system.cpu.fetch.rateDist::mean              3.057563                       # Number of instructions fetched each cycle (Total)
system.cpu.fetch.rateDist::stdev             3.574162                       # Number of instructions fetched each cycle (Total)
system.cpu.fetch.rateDist::underflows               0      0.00%      0.00% # Number of instructions fetched each cycle (Total)
system.cpu.fetch.rateDist::0                 18996108     49.31%     49.31% # Number of instructions fetched each cycle (Total)
system.cpu.fetch.rateDist::1                  1924092      4.99%     54.31% # Number of instructions fetched each cycle (Total)
system.cpu.fetch.rateDist::2                  2281706      5.92%     60.23% # Number of instructions fetched each cycle (Total)
system.cpu.fetch.rateDist::3                   771360      2.00%     62.23% # Number of instructions fetched each cycle (Total)
system.cpu.fetch.rateDist::4                   508710      1.32%     63.55% # Number of instructions fetched each cycle (Total)
system.cpu.fetch.rateDist::5                  1211851      3.15%     66.70% # Number of instructions fetched each cycle (Total)
system.cpu.fetch.rateDist::6                   439350      1.14%     67.84% # Number of instructions fetched each cycle (Total)
system.cpu.fetch.rateDist::7                   860675      2.23%     70.07% # Number of instructions fetched each cycle (Total)
system.cpu.fetch.rateDist::8                 11528504     29.93%    100.00% # Number of instructions fetched each cycle (Total)
system.cpu.fetch.rateDist::overflows                0      0.00%    100.00% # Number of instructions fetched each cycle (Total)
system.cpu.fetch.rateDist::min_value                0                       # Number of instructions fetched each cycle (Total)
system.cpu.fetch.rateDist::max_value                8                       # Number of instructions fetched each cycle (Total)
system.cpu.fetch.rateDist::total             38522356                       # Number of instructions fetched each cycle (Total)
system.cpu.fp_regfile_reads                  12476267                       # number of floating regfile reads
system.cpu.fp_regfile_writes                 13569789                       # number of floating regfile writes
system.cpu.idleCycles                           99833                       # Total number of cycles that the CPU has spent unscheduled due to idling
system.cpu.iew.branchMispredicts               515942                       # Number of branch mispredicts detected at execute
system.cpu.iew.exec_branches                  6679178                       # Number of branches executed
system.cpu.iew.exec_nop                             0                       # number of nop insts executed
system.cpu.iew.exec_rate                     2.695142                       # Inst execution rate
system.cpu.iew.exec_refs                     39076891                       # number of memory reference insts executed
system.cpu.iew.exec_stores                    9290011                       # Number of stores executed
system.cpu.iew.exec_swp                             0                       # number of swp insts executed
system.cpu.iew.iewBlockCycles                 1411480                       # Number of cycles IEW is blocking
system.cpu.iew.iewDispLoadInsts              30373163                       # Number of dispatched load instructions
system.cpu.iew.iewDispNonSpecInsts              25707                       # Number of dispatched non-speculative instructions
system.cpu.iew.iewDispSquashedInsts             21961                       # Number of squashed instructions skipped by dispatch
system.cpu.iew.iewDispStoreInsts              9769566                       # Number of dispatched store instructions
system.cpu.iew.iewDispatchedInsts           109635829                       # Number of instructions dispatched to IQ
system.cpu.iew.iewExecLoadInsts              29786880                       # Number of load instructions executed
system.cpu.iew.iewExecSquashedInsts            928915                       # Number of squashed instructions skipped in execute
system.cpu.iew.iewExecutedInsts             104092271                       # Number of executed instructions
system.cpu.iew.iewIQFullEvents                   1289                       # Number of times the IQ has become full, causing a stall
system.cpu.iew.iewIdleCycles                        0                       # Number of cycles IEW is idle
system.cpu.iew.iewLSQFullEvents                 29258                       # Number of times the LSQ has become full, causing a stall
system.cpu.iew.iewSquashCycles                 417482                       # Number of cycles IEW is squashing
system.cpu.iew.iewUnblockCycles                 30988                       # Number of cycles IEW is unblocking
system.cpu.iew.lsq.thread0.blockedLoads             0                       # Number of blocked loads due to partial load-store forwarding
system.cpu.iew.lsq.thread0.cacheBlocked          2392                       # Number of times an access to memory failed due to the cache being blocked
system.cpu.iew.lsq.thread0.forwLoads         12487003                       # Number of loads that had data forwarded from stores
system.cpu.iew.lsq.thread0.ignoredResponses        10975                       # Number of memory responses ignored because the instruction is squashed
system.cpu.iew.lsq.thread0.invAddrLoads             0                       # Number of loads ignored due to an invalid address
system.cpu.iew.lsq.thread0.invAddrSwpfs             0                       # Number of software prefetches ignored due to an invalid address
system.cpu.iew.lsq.thread0.memOrderViolation         5626                       # Number of memory ordering violations
system.cpu.iew.lsq.thread0.rescheduledLoads          758                       # Number of loads that were rescheduled
system.cpu.iew.lsq.thread0.squashedLoads      1331814                       # Number of loads squashed
system.cpu.iew.lsq.thread0.squashedStores       723685                       # Number of stores squashed
system.cpu.iew.memOrderViolationEvents           5626                       # Number of memory order violations
system.cpu.iew.predictedNotTakenIncorrect       429952                       # Number of branches that were predicted not taken incorrectly
system.cpu.iew.predictedTakenIncorrect          85990                       # Number of branches that were predicted taken incorrectly
system.cpu.iew.wb_consumers                 105756729                       # num instructions consuming a value
system.cpu.iew.wb_count                     103799267                       # cumulative count of insts written-back
system.cpu.iew.wb_fanout                     0.726290                       # average fanout of values written-back
system.cpu.iew.wb_producers                  76810042                       # num instructions producing a value
system.cpu.iew.wb_rate                       2.687555                       # insts written-back per cycle
system.cpu.iew.wb_sent                      103913726                       # cumulative count of insts sent to commit
system.cpu.int_regfile_reads                157828366                       # number of integer regfile reads
system.cpu.int_regfile_writes                75226456                       # number of integer regfile writes
system.cpu.ipc                               1.502535                       # IPC: Instructions Per Cycle
system.cpu.ipc_total                         1.502535                       # IPC: Total IPC of All Threads
system.cpu.iq.FU_type_0::No_OpClass            571423      0.54%      0.54% # Type of FU issued
system.cpu.iq.FU_type_0::IntAlu              55864120     53.19%     53.74% # Type of FU issued
system.cpu.iq.FU_type_0::IntMult                41504      0.04%     53.78% # Type of FU issued
system.cpu.iq.FU_type_0::IntDiv                589637      0.56%     54.34% # Type of FU issued
system.cpu.iq.FU_type_0::FloatAdd             4913472      4.68%     59.02% # Type of FU issued
system.cpu.iq.FU_type_0::FloatCmp                   0      0.00%     59.02% # Type of FU issued
system.cpu.iq.FU_type_0::FloatCvt                1068      0.00%     59.02% # Type of FU issued
system.cpu.iq.FU_type_0::FloatMult                  0      0.00%     59.02% # Type of FU issued
system.cpu.iq.FU_type_0::FloatMultAcc               0      0.00%     59.02% # Type of FU issued
system.cpu.iq.FU_type_0::FloatDiv                   0      0.00%     59.02% # Type of FU issued
system.cpu.iq.FU_type_0::FloatMisc                  0      0.00%     59.02% # Type of FU issued
system.cpu.iq.FU_type_0::FloatSqrt                  0      0.00%     59.02% # Type of FU issued
system.cpu.iq.FU_type_0::SimdAdd                    0      0.00%     59.02% # Type of FU issued
system.cpu.iq.FU_type_0::SimdAddAcc                 0      0.00%     59.02% # Type of FU issued
system.cpu.iq.FU_type_0::SimdAlu                59746      0.06%     59.07% # Type of FU issued
system.cpu.iq.FU_type_0::SimdCmp                    0      0.00%     59.07% # Type of FU issued
system.cpu.iq.FU_type_0::SimdCvt                79596      0.08%     59.15% # Type of FU issued
system.cpu.iq.FU_type_0::SimdMisc              216984      0.21%     59.36% # Type of FU issued
system.cpu.iq.FU_type_0::SimdMult                   0      0.00%     59.36% # Type of FU issued
system.cpu.iq.FU_type_0::SimdMultAcc                0      0.00%     59.36% # Type of FU issued
system.cpu.iq.FU_type_0::SimdShift                  0      0.00%     59.36% # Type of FU issued
system.cpu.iq.FU_type_0::SimdShiftAcc               0      0.00%     59.36% # Type of FU issued
system.cpu.iq.FU_type_0::SimdDiv                    0      0.00%     59.36% # Type of FU issued
system.cpu.iq.FU_type_0::SimdSqrt                   0      0.00%     59.36% # Type of FU issued
system.cpu.iq.FU_type_0::SimdFloatAdd         1642358      1.56%     60.92% # Type of FU issued
system.cpu.iq.FU_type_0::SimdFloatAlu               0      0.00%     60.92% # Type of FU issued
system.cpu.iq.FU_type_0::SimdFloatCmp               0      0.00%     60.92% # Type of FU issued
system.cpu.iq.FU_type_0::SimdFloatCvt           23419      0.02%     60.94% # Type of FU issued
system.cpu.iq.FU_type_0::SimdFloatDiv           19229      0.02%     60.96% # Type of FU issued
system.cpu.iq.FU_type_0::SimdFloatMisc              0      0.00%     60.96% # Type of FU issued
system.cpu.iq.FU_type_0::SimdFloatMult        1646221      1.57%     62.53% # Type of FU issued
system.cpu.iq.FU_type_0::SimdFloatMultAcc            0      0.00%     62.53% # Type of FU issued
system.cpu.iq.FU_type_0::SimdFloatSqrt              0      0.00%     62.53% # Type of FU issued
system.cpu.iq.FU_type_0::SimdReduceAdd              0      0.00%     62.53% # Type of FU issued
system.cpu.iq.FU_type_0::SimdReduceAlu              0      0.00%     62.53% # Type of FU issued
system.cpu.iq.FU_type_0::SimdReduceCmp              0      0.00%     62.53% # Type of FU issued
system.cpu.iq.FU_type_0::SimdFloatReduceAdd            0      0.00%     62.53% # Type of FU issued
system.cpu.iq.FU_type_0::SimdFloatReduceCmp            0      0.00%     62.53% # Type of FU issued
system.cpu.iq.FU_type_0::SimdAes                    0      0.00%     62.53% # Type of FU issued
system.cpu.iq.FU_type_0::SimdAesMix                 0      0.00%     62.53% # Type of FU issued
system.cpu.iq.FU_type_0::SimdSha1Hash               0      0.00%     62.53% # Type of FU issued
system.cpu.iq.FU_type_0::SimdSha1Hash2              0      0.00%     62.53% # Type of FU issued
system.cpu.iq.FU_type_0::SimdSha256Hash             0      0.00%     62.53% # Type of FU issued
system.cpu.iq.FU_type_0::SimdSha256Hash2            0      0.00%     62.53% # Type of FU issued
system.cpu.iq.FU_type_0::SimdShaSigma2              0      0.00%     62.53% # Type of FU issued
system.cpu.iq.FU_type_0::SimdShaSigma3              0      0.00%     62.53% # Type of FU issued
system.cpu.iq.FU_type_0::SimdPredAlu                0      0.00%     62.53% # Type of FU issued
system.cpu.iq.FU_type_0::MemRead             24987169     23.79%     86.32% # Type of FU issued
system.cpu.iq.FU_type_0::MemWrite             7731923      7.36%     93.68% # Type of FU issued
system.cpu.iq.FU_type_0::FloatMemRead         4986313      4.75%     98.43% # Type of FU issued
system.cpu.iq.FU_type_0::FloatMemWrite        1647004      1.57%    100.00% # Type of FU issued
system.cpu.iq.FU_type_0::IprAccess                  0      0.00%    100.00% # Type of FU issued
system.cpu.iq.FU_type_0::InstPrefetch               0      0.00%    100.00% # Type of FU issued
system.cpu.iq.FU_type_0::total              105021186                       # Type of FU issued
system.cpu.iq.fp_alu_accesses                15331509                       # Number of floating point alu accesses
system.cpu.iq.fp_inst_queue_reads            30660813                       # Number of floating instruction queue reads
system.cpu.iq.fp_inst_queue_wakeup_accesses     15304028                       # Number of floating instruction queue wakeup accesses
system.cpu.iq.fp_inst_queue_writes           15527566                       # Number of floating instruction queue writes
system.cpu.iq.fu_busy_cnt                     1923815                       # FU busy when requested
system.cpu.iq.fu_busy_rate                   0.018318                       # FU busy rate (busy events/executed inst)
system.cpu.iq.fu_full::No_OpClass                   0      0.00%      0.00% # attempts to use FU when none available
system.cpu.iq.fu_full::IntAlu                  857470     44.57%     44.57% # attempts to use FU when none available
system.cpu.iq.fu_full::IntMult                      0      0.00%     44.57% # attempts to use FU when none available
system.cpu.iq.fu_full::IntDiv                       0      0.00%     44.57% # attempts to use FU when none available
system.cpu.iq.fu_full::FloatAdd                     0      0.00%     44.57% # attempts to use FU when none available
system.cpu.iq.fu_full::FloatCmp                     0      0.00%     44.57% # attempts to use FU when none available
system.cpu.iq.fu_full::FloatCvt                    11      0.00%     44.57% # attempts to use FU when none available
system.cpu.iq.fu_full::FloatMult                    0      0.00%     44.57% # attempts to use FU when none available
system.cpu.iq.fu_full::FloatMultAcc                 0      0.00%     44.57% # attempts to use FU when none available
system.cpu.iq.fu_full::FloatDiv                     0      0.00%     44.57% # attempts to use FU when none available
system.cpu.iq.fu_full::FloatMisc                    0      0.00%     44.57% # attempts to use FU when none available
system.cpu.iq.fu_full::FloatSqrt                    0      0.00%     44.57% # attempts to use FU when none available
system.cpu.iq.fu_full::SimdAdd                      0      0.00%     44.57% # attempts to use FU when none available
system.cpu.iq.fu_full::SimdAddAcc                   0      0.00%     44.57% # attempts to use FU when none available
system.cpu.iq.fu_full::SimdAlu                    141      0.01%     44.58% # attempts to use FU when none available
system.cpu.iq.fu_full::SimdCmp                      0      0.00%     44.58% # attempts to use FU when none available
system.cpu.iq.fu_full::SimdCvt                      0      0.00%     44.58% # attempts to use FU when none available
system.cpu.iq.fu_full::SimdMisc                    69      0.00%     44.58% # attempts to use FU when none available
system.cpu.iq.fu_full::SimdMult                     0      0.00%     44.58% # attempts to use FU when none available
system.cpu.iq.fu_full::SimdMultAcc                  0      0.00%     44.58% # attempts to use FU when none available
system.cpu.iq.fu_full::SimdShift                    0      0.00%     44.58% # attempts to use FU when none available
system.cpu.iq.fu_full::SimdShiftAcc                 0      0.00%     44.58% # attempts to use FU when none available
system.cpu.iq.fu_full::SimdDiv                      0      0.00%     44.58% # attempts to use FU when none available
system.cpu.iq.fu_full::SimdSqrt                     0      0.00%     44.58% # attempts to use FU when none available
system.cpu.iq.fu_full::SimdFloatAdd                 0      0.00%     44.58% # attempts to use FU when none available
system.cpu.iq.fu_full::SimdFloatAlu                 0      0.00%     44.58% # attempts to use FU when none available
system.cpu.iq.fu_full::SimdFloatCmp                 0      0.00%     44.58% # attempts to use FU when none available
system.cpu.iq.fu_full::SimdFloatCvt                 0      0.00%     44.58% # attempts to use FU when none available
system.cpu.iq.fu_full::SimdFloatDiv                 0      0.00%     44.58% # attempts to use FU when none available
system.cpu.iq.fu_full::SimdFloatMisc                0      0.00%     44.58% # attempts to use FU when none available
system.cpu.iq.fu_full::SimdFloatMult                0      0.00%     44.58% # attempts to use FU when none available
system.cpu.iq.fu_full::SimdFloatMultAcc             0      0.00%     44.58% # attempts to use FU when none available
system.cpu.iq.fu_full::SimdFloatSqrt                0      0.00%     44.58% # attempts to use FU when none available
system.cpu.iq.fu_full::SimdReduceAdd                0      0.00%     44.58% # attempts to use FU when none available
system.cpu.iq.fu_full::SimdReduceAlu                0      0.00%     44.58% # attempts to use FU when none available
system.cpu.iq.fu_full::SimdReduceCmp                0      0.00%     44.58% # attempts to use FU when none available
system.cpu.iq.fu_full::SimdFloatReduceAdd            0      0.00%     44.58% # attempts to use FU when none available
system.cpu.iq.fu_full::SimdFloatReduceCmp            0      0.00%     44.58% # attempts to use FU when none available
system.cpu.iq.fu_full::SimdAes                      0      0.00%     44.58% # attempts to use FU when none available
system.cpu.iq.fu_full::SimdAesMix                   0      0.00%     44.58% # attempts to use FU when none available
system.cpu.iq.fu_full::SimdSha1Hash                 0      0.00%     44.58% # attempts to use FU when none available
system.cpu.iq.fu_full::SimdSha1Hash2                0      0.00%     44.58% # attempts to use FU when none available
system.cpu.iq.fu_full::SimdSha256Hash               0      0.00%     44.58% # attempts to use FU when none available
system.cpu.iq.fu_full::SimdSha256Hash2              0      0.00%     44.58% # attempts to use FU when none available
system.cpu.iq.fu_full::SimdShaSigma2                0      0.00%     44.58% # attempts to use FU when none available
system.cpu.iq.fu_full::SimdShaSigma3                0      0.00%     44.58% # attempts to use FU when none available
system.cpu.iq.fu_full::SimdPredAlu                  0      0.00%     44.58% # attempts to use FU when none available
system.cpu.iq.fu_full::MemRead                1049386     54.55%     99.13% # attempts to use FU when none available
system.cpu.iq.fu_full::MemWrite                 14384      0.75%     99.88% # attempts to use FU when none available
system.cpu.iq.fu_full::FloatMemRead              1452      0.08%     99.95% # attempts to use FU when none available
system.cpu.iq.fu_full::FloatMemWrite              902      0.05%    100.00% # attempts to use FU when none available
system.cpu.iq.fu_full::IprAccess                    0      0.00%    100.00% # attempts to use FU when none available
system.cpu.iq.fu_full::InstPrefetch                 0      0.00%    100.00% # attempts to use FU when none available
system.cpu.iq.int_alu_accesses               91042069                       # Number of integer alu accesses
system.cpu.iq.int_inst_queue_reads          219963382                       # Number of integer instruction queue reads
system.cpu.iq.int_inst_queue_wakeup_accesses     88495239                       # Number of integer instruction queue wakeup accesses
system.cpu.iq.int_inst_queue_writes         106316351                       # Number of integer instruction queue writes
system.cpu.iq.iqInstsAdded                  109559768                       # Number of instructions added to the IQ (excludes non-spec)
system.cpu.iq.iqInstsIssued                 105021186                       # Number of instructions issued
system.cpu.iq.iqNonSpecInstsAdded               76061                       # Number of non-speculative instructions added to the IQ
system.cpu.iq.iqSquashedInstsExamined        12202774                       # Number of squashed instructions iterated over during squash; mainly for profiling
system.cpu.iq.iqSquashedInstsIssued            135652                       # Number of squashed instructions issued
system.cpu.iq.iqSquashedNonSpecRemoved          75719                       # Number of squashed non-spec instructions that were removed
system.cpu.iq.iqSquashedOperandsExamined     19994385                       # Number of squashed operands that are examined and possibly removed from graph
system.cpu.iq.issued_per_cycle::samples      38522356                       # Number of insts issued each cycle
system.cpu.iq.issued_per_cycle::mean         2.726240                       # Number of insts issued each cycle
system.cpu.iq.issued_per_cycle::stdev        2.281220                       # Number of insts issued each cycle
system.cpu.iq.issued_per_cycle::underflows            0      0.00%      0.00% # Number of insts issued each cycle
system.cpu.iq.issued_per_cycle::0             9426159     24.47%     24.47% # Number of insts issued each cycle
system.cpu.iq.issued_per_cycle::1             4781168     12.41%     36.88% # Number of insts issued each cycle
system.cpu.iq.issued_per_cycle::2             5321555     13.81%     50.69% # Number of insts issued each cycle
system.cpu.iq.issued_per_cycle::3             4545940     11.80%     62.50% # Number of insts issued each cycle
system.cpu.iq.issued_per_cycle::4             4790356     12.44%     74.93% # Number of insts issued each cycle
system.cpu.iq.issued_per_cycle::5             4366329     11.33%     86.27% # Number of insts issued each cycle
system.cpu.iq.issued_per_cycle::6             2897245      7.52%     93.79% # Number of insts issued each cycle
system.cpu.iq.issued_per_cycle::7             1566283      4.07%     97.85% # Number of insts issued each cycle
system.cpu.iq.issued_per_cycle::8              827321      2.15%    100.00% # Number of insts issued each cycle
system.cpu.iq.issued_per_cycle::overflows            0      0.00%    100.00% # Number of insts issued each cycle
system.cpu.iq.issued_per_cycle::min_value            0                       # Number of insts issued each cycle
system.cpu.iq.issued_per_cycle::max_value            8                       # Number of insts issued each cycle
system.cpu.iq.issued_per_cycle::total        38522356                       # Number of insts issued each cycle
system.cpu.iq.rate                           2.719193                       # Inst issue rate
system.cpu.iq.vec_alu_accesses                      0                       # Number of vector alu accesses
system.cpu.iq.vec_inst_queue_reads                  0                       # Number of vector instruction queue reads
system.cpu.iq.vec_inst_queue_wakeup_accesses            0                       # Number of vector instruction queue wakeup accesses
system.cpu.iq.vec_inst_queue_writes                 0                       # Number of vector instruction queue writes
system.cpu.itb.rdAccesses                           0                       # TLB accesses on read requests
system.cpu.itb.rdMisses                             0                       # TLB misses on read requests
system.cpu.itb.wrAccesses                     7622931                       # TLB accesses on write requests
system.cpu.itb.wrMisses                           249                       # TLB misses on write requests
system.cpu.memDep0.conflictingLoads          11526145                       # Number of conflicting loads.
system.cpu.memDep0.conflictingStores          5400328                       # Number of conflicting stores.
system.cpu.memDep0.insertedLoads             30373163                       # Number of loads inserted to the mem dependence unit.
system.cpu.memDep0.insertedStores             9769566                       # Number of stores inserted to the mem dependence unit.
system.cpu.misc_regfile_reads                52440864                       # number of misc regfile reads
system.cpu.misc_regfile_writes                    143                       # number of misc regfile writes
system.cpu.numCycles                         38622189                       # number of cpu cycles simulated
system.cpu.numWorkItemsCompleted                    0                       # number of work items this cpu completed
system.cpu.numWorkItemsStarted                      0                       # number of work items this cpu started
system.cpu.rename.BlockCycles                 1521574                       # Number of cycles rename is blocking
system.cpu.rename.CommittedMaps             109139378                       # Number of HB maps that are committed
system.cpu.rename.IQFullEvents                 341802                       # Number of times rename has blocked due to IQ full
system.cpu.rename.IdleCycles                 10436721                       # Number of cycles rename is idle
system.cpu.rename.LQFullEvents                9255557                       # Number of times rename has blocked due to LQ full
system.cpu.rename.ROBFullEvents                  5062                       # Number of times rename has blocked due to ROB full
system.cpu.rename.RenameLookups             287701599                       # Number of register rename lookups that rename has made
system.cpu.rename.RenamedInsts              113213282                       # Number of instructions processed by rename
system.cpu.rename.RenamedOperands           127940508                       # Number of destination operands rename has renamed
system.cpu.rename.RunCycles                  14571363                       # Number of cycles rename is running
system.cpu.rename.SQFullEvents                1086351                       # Number of times rename has blocked due to SQ full
system.cpu.rename.SquashCycles                 417482                       # Number of cycles rename is squashing
system.cpu.rename.UnblockCycles              11565244                       # Number of cycles rename is unblocking
system.cpu.rename.UndoneMaps                 18801130                       # Number of HB maps that are undone due to squashing
system.cpu.rename.fp_rename_lookups          12609964                       # Number of floating rename lookups
system.cpu.rename.int_rename_lookups        175001127                       # Number of integer rename lookups
system.cpu.rename.serializeStallCycles           9972                       # count of cycles rename stalled for serializing inst
system.cpu.rename.serializingInsts                737                       # count of serializing insts renamed
system.cpu.rename.skidInsts                  18281417                       # count of insts added to the skid buffer
system.cpu.rename.tempSerializingInsts            789                       # count of temporary serializing insts renamed
system.cpu.rob.rob_reads                    139360103                       # The number of ROB reads
system.cpu.rob.rob_writes                   221092711                       # The number of ROB writes
system.cpu.timesIdled                           34914                       # Number of times that the entire CPU went into an idle state and unscheduled itself
system.cpu.workload.numSyscalls                   203                       # Number of system calls
system.membus.snoop_filter.hit_multi_requests            0                       # Number of requests hitting in the snoop filter with multiple (>1) holders of the requested data.
system.membus.snoop_filter.hit_multi_snoops            0                       # Number of snoops hitting in the snoop filter with multiple (>1) holders of the requested data.
system.membus.snoop_filter.hit_single_requests            0                       # Number of requests hitting in the snoop filter with a single holder of the requested data.
system.membus.snoop_filter.hit_single_snoops            0                       # Number of snoops hitting in the snoop filter with a single holder of the requested data.
system.membus.snoop_filter.tot_requests         16975                       # Total number of requests made to the snoop filter.
system.membus.snoop_filter.tot_snoops               0                       # Total number of snoops made to the snoop filter.
system.tol2bus.snoop_filter.hit_multi_requests          106                       # Number of requests hitting in the snoop filter with multiple (>1) holders of the requested data.
system.tol2bus.snoop_filter.hit_multi_snoops            0                       # Number of snoops hitting in the snoop filter with multiple (>1) holders of the requested data.
system.tol2bus.snoop_filter.hit_single_requests       401878                       # Number of requests hitting in the snoop filter with a single holder of the requested data.
system.tol2bus.snoop_filter.hit_single_snoops            0                       # Number of snoops hitting in the snoop filter with a single holder of the requested data.
system.tol2bus.snoop_filter.tot_requests       805748                       # Total number of requests made to the snoop filter.
system.tol2bus.snoop_filter.tot_snoops              0                       # Total number of snoops made to the snoop filter.
system.membus.pwrStateResidencyTicks::UNDEFINED  38622188000                       # Cumulative time (in ticks) in various power states
system.membus.trans_dist::ReadResp               6085                       # Transaction distribution
system.membus.trans_dist::ReadExReq             10890                       # Transaction distribution
system.membus.trans_dist::ReadExResp            10890                       # Transaction distribution
system.membus.trans_dist::ReadSharedReq          6085                       # Transaction distribution
system.membus.pkt_count_system.l2.mem_side::system.mem_ctrls.port        33950                       # Packet count per connected master and slave (bytes)
system.membus.pkt_count_system.l2.mem_side::total        33950                       # Packet count per connected master and slave (bytes)
system.membus.pkt_count::total                  33950                       # Packet count per connected master and slave (bytes)
system.membus.pkt_size_system.l2.mem_side::system.mem_ctrls.port      1086400                       # Cumulative packet size per connected master and slave (bytes)
system.membus.pkt_size_system.l2.mem_side::total      1086400                       # Cumulative packet size per connected master and slave (bytes)
system.membus.pkt_size::total                 1086400                       # Cumulative packet size per connected master and slave (bytes)
system.membus.snoops                                0                       # Total snoops (count)
system.membus.snoopTraffic                          0                       # Total snoop traffic (bytes)
system.membus.snoop_fanout::samples             16975                       # Request fanout histogram
system.membus.snoop_fanout::mean                    0                       # Request fanout histogram
system.membus.snoop_fanout::stdev                   0                       # Request fanout histogram
system.membus.snoop_fanout::underflows              0      0.00%      0.00% # Request fanout histogram
system.membus.snoop_fanout::0                   16975    100.00%    100.00% # Request fanout histogram
system.membus.snoop_fanout::1                       0      0.00%    100.00% # Request fanout histogram
system.membus.snoop_fanout::overflows               0      0.00%    100.00% # Request fanout histogram
system.membus.snoop_fanout::min_value               0                       # Request fanout histogram
system.membus.snoop_fanout::max_value               0                       # Request fanout histogram
system.membus.snoop_fanout::total               16975                       # Request fanout histogram
system.membus.reqLayer2.occupancy            16975000                       # Layer occupancy (ticks)
system.membus.reqLayer2.utilization               0.0                       # Layer utilization (%)
system.membus.respLayer1.occupancy           89499250                       # Layer occupancy (ticks)
system.membus.respLayer1.utilization              0.2                       # Layer utilization (%)
system.tol2bus.pwrStateResidencyTicks::UNDEFINED  38622188000                       # Cumulative time (in ticks) in various power states
system.tol2bus.trans_dist::ReadResp            381596                       # Transaction distribution
system.tol2bus.trans_dist::WritebackDirty       231357                       # Transaction distribution
system.tol2bus.trans_dist::WritebackClean       158581                       # Transaction distribution
system.tol2bus.trans_dist::CleanEvict           11939                       # Transaction distribution
system.tol2bus.trans_dist::ReadExReq            22274                       # Transaction distribution
system.tol2bus.trans_dist::ReadExResp           22274                       # Transaction distribution
system.tol2bus.trans_dist::ReadCleanReq        159551                       # Transaction distribution
system.tol2bus.trans_dist::ReadSharedReq       222046                       # Transaction distribution
system.tol2bus.pkt_count_system.cpu.icache.mem_side::system.l2.cpu_side       477682                       # Packet count per connected master and slave (bytes)
system.tol2bus.pkt_count_system.cpu.dcache.mem_side::system.l2.cpu_side       731936                       # Packet count per connected master and slave (bytes)
system.tol2bus.pkt_count::total               1209618                       # Packet count per connected master and slave (bytes)
system.tol2bus.pkt_size_system.cpu.icache.mem_side::system.l2.cpu_side     20360384                       # Cumulative packet size per connected master and slave (bytes)
system.tol2bus.pkt_size_system.cpu.dcache.mem_side::system.l2.cpu_side     30443328                       # Cumulative packet size per connected master and slave (bytes)
system.tol2bus.pkt_size::total               50803712                       # Cumulative packet size per connected master and slave (bytes)
system.tol2bus.snoops                               0                       # Total snoops (count)
system.tol2bus.snoopTraffic                         0                       # Total snoop traffic (bytes)
system.tol2bus.snoop_fanout::samples           403871                       # Request fanout histogram
system.tol2bus.snoop_fanout::mean            0.000265                       # Request fanout histogram
system.tol2bus.snoop_fanout::stdev           0.016275                       # Request fanout histogram
system.tol2bus.snoop_fanout::underflows             0      0.00%      0.00% # Request fanout histogram
system.tol2bus.snoop_fanout::0                 403764     99.97%     99.97% # Request fanout histogram
system.tol2bus.snoop_fanout::1                    107      0.03%    100.00% # Request fanout histogram
system.tol2bus.snoop_fanout::2                      0      0.00%    100.00% # Request fanout histogram
system.tol2bus.snoop_fanout::3                      0      0.00%    100.00% # Request fanout histogram
system.tol2bus.snoop_fanout::4                      0      0.00%    100.00% # Request fanout histogram
system.tol2bus.snoop_fanout::overflows              0      0.00%    100.00% # Request fanout histogram
system.tol2bus.snoop_fanout::min_value              0                       # Request fanout histogram
system.tol2bus.snoop_fanout::max_value              1                       # Request fanout histogram
system.tol2bus.snoop_fanout::total             403871                       # Request fanout histogram
system.tol2bus.reqLayer0.occupancy         1585624000                       # Layer occupancy (ticks)
system.tol2bus.reqLayer0.utilization              4.1                       # Layer utilization (%)
system.tol2bus.respLayer1.occupancy         732964995                       # Layer occupancy (ticks)
system.tol2bus.respLayer1.utilization             1.9                       # Layer utilization (%)
system.tol2bus.respLayer0.occupancy         478653996                       # Layer occupancy (ticks)
system.tol2bus.respLayer0.utilization             1.2                       # Layer utilization (%)
system.voltage_domain.voltage                       1                       # Voltage in Volts
system.clk_domain.clock                          1000                       # Clock period in ticks
system.l2.pwrStateResidencyTicks::UNDEFINED  38622188000                       # Cumulative time (in ticks) in various power states
system.l2.demand_hits::.cpu.inst               157825                       # number of demand (read+write) hits
system.l2.demand_hits::.cpu.data               229069                       # number of demand (read+write) hits
system.l2.demand_hits::total                   386894                       # number of demand (read+write) hits
system.l2.overall_hits::.cpu.inst              157825                       # number of overall hits
system.l2.overall_hits::.cpu.data              229069                       # number of overall hits
system.l2.overall_hits::total                  386894                       # number of overall hits
system.l2.demand_misses::.cpu.inst               1726                       # number of demand (read+write) misses
system.l2.demand_misses::.cpu.data              15251                       # number of demand (read+write) misses
system.l2.demand_misses::total                  16977                       # number of demand (read+write) misses
system.l2.overall_misses::.cpu.inst              1726                       # number of overall misses
system.l2.overall_misses::.cpu.data             15251                       # number of overall misses
system.l2.overall_misses::total                 16977                       # number of overall misses
system.l2.demand_miss_latency::.cpu.inst    170774000                       # number of demand (read+write) miss cycles
system.l2.demand_miss_latency::.cpu.data   1465134000                       # number of demand (read+write) miss cycles
system.l2.demand_miss_latency::total       1635908000                       # number of demand (read+write) miss cycles
system.l2.overall_miss_latency::.cpu.inst    170774000                       # number of overall miss cycles
system.l2.overall_miss_latency::.cpu.data   1465134000                       # number of overall miss cycles
system.l2.overall_miss_latency::total      1635908000                       # number of overall miss cycles
system.l2.demand_accesses::.cpu.inst           159551                       # number of demand (read+write) accesses
system.l2.demand_accesses::.cpu.data           244320                       # number of demand (read+write) accesses
system.l2.demand_accesses::total               403871                       # number of demand (read+write) accesses
system.l2.overall_accesses::.cpu.inst          159551                       # number of overall (read+write) accesses
system.l2.overall_accesses::.cpu.data          244320                       # number of overall (read+write) accesses
system.l2.overall_accesses::total              403871                       # number of overall (read+write) accesses
system.l2.demand_miss_rate::.cpu.inst        0.010818                       # miss rate for demand accesses
system.l2.demand_miss_rate::.cpu.data        0.062422                       # miss rate for demand accesses
system.l2.demand_miss_rate::total            0.042036                       # miss rate for demand accesses
system.l2.overall_miss_rate::.cpu.inst       0.010818                       # miss rate for overall accesses
system.l2.overall_miss_rate::.cpu.data       0.062422                       # miss rate for overall accesses
system.l2.overall_miss_rate::total           0.042036                       # miss rate for overall accesses
system.l2.demand_avg_miss_latency::.cpu.inst 98942.062572                       # average overall miss latency
system.l2.demand_avg_miss_latency::.cpu.data 96068.061111                       # average overall miss latency
system.l2.demand_avg_miss_latency::total 96360.252106                       # average overall miss latency
system.l2.overall_avg_miss_latency::.cpu.inst 98942.062572                       # average overall miss latency
system.l2.overall_avg_miss_latency::.cpu.data 96068.061111                       # average overall miss latency
system.l2.overall_avg_miss_latency::total 96360.252106                       # average overall miss latency
system.l2.blocked_cycles::no_mshrs                  0                       # number of cycles access was blocked
system.l2.blocked_cycles::no_targets                0                       # number of cycles access was blocked
system.l2.blocked::no_mshrs                         0                       # number of cycles access was blocked
system.l2.blocked::no_targets                       0                       # number of cycles access was blocked
system.l2.avg_blocked_cycles::no_mshrs            nan                       # average number of cycles each access was blocked
system.l2.avg_blocked_cycles::no_targets          nan                       # average number of cycles each access was blocked
system.l2.demand_mshr_hits::.cpu.data               1                       # number of demand (read+write) MSHR hits
system.l2.demand_mshr_hits::total                   1                       # number of demand (read+write) MSHR hits
system.l2.overall_mshr_hits::.cpu.data              1                       # number of overall MSHR hits
system.l2.overall_mshr_hits::total                  1                       # number of overall MSHR hits
system.l2.demand_mshr_misses::.cpu.inst          1726                       # number of demand (read+write) MSHR misses
system.l2.demand_mshr_misses::.cpu.data         15250                       # number of demand (read+write) MSHR misses
system.l2.demand_mshr_misses::total             16976                       # number of demand (read+write) MSHR misses
system.l2.overall_mshr_misses::.cpu.inst         1726                       # number of overall MSHR misses
system.l2.overall_mshr_misses::.cpu.data        15250                       # number of overall MSHR misses
system.l2.overall_mshr_misses::total            16976                       # number of overall MSHR misses
system.l2.demand_mshr_miss_latency::.cpu.inst    136274000                       # number of demand (read+write) MSHR miss cycles
system.l2.demand_mshr_miss_latency::.cpu.data   1160062000                       # number of demand (read+write) MSHR miss cycles
system.l2.demand_mshr_miss_latency::total   1296336000                       # number of demand (read+write) MSHR miss cycles
system.l2.overall_mshr_miss_latency::.cpu.inst    136274000                       # number of overall MSHR miss cycles
system.l2.overall_mshr_miss_latency::.cpu.data   1160062000                       # number of overall MSHR miss cycles
system.l2.overall_mshr_miss_latency::total   1296336000                       # number of overall MSHR miss cycles
system.l2.demand_mshr_miss_rate::.cpu.inst     0.010818                       # mshr miss rate for demand accesses
system.l2.demand_mshr_miss_rate::.cpu.data     0.062418                       # mshr miss rate for demand accesses
system.l2.demand_mshr_miss_rate::total       0.042033                       # mshr miss rate for demand accesses
system.l2.overall_mshr_miss_rate::.cpu.inst     0.010818                       # mshr miss rate for overall accesses
system.l2.overall_mshr_miss_rate::.cpu.data     0.062418                       # mshr miss rate for overall accesses
system.l2.overall_mshr_miss_rate::total      0.042033                       # mshr miss rate for overall accesses
system.l2.demand_avg_mshr_miss_latency::.cpu.inst 78953.650058                       # average overall mshr miss latency
system.l2.demand_avg_mshr_miss_latency::.cpu.data 76069.639344                       # average overall mshr miss latency
system.l2.demand_avg_mshr_miss_latency::total 76362.865221                       # average overall mshr miss latency
system.l2.overall_avg_mshr_miss_latency::.cpu.inst 78953.650058                       # average overall mshr miss latency
system.l2.overall_avg_mshr_miss_latency::.cpu.data 76069.639344                       # average overall mshr miss latency
system.l2.overall_avg_mshr_miss_latency::total 76362.865221                       # average overall mshr miss latency
system.l2.replacements                              0                       # number of replacements
system.l2.WritebackDirty_hits::.writebacks       231357                       # number of WritebackDirty hits
system.l2.WritebackDirty_hits::total           231357                       # number of WritebackDirty hits
system.l2.WritebackDirty_accesses::.writebacks       231357                       # number of WritebackDirty accesses(hits+misses)
system.l2.WritebackDirty_accesses::total       231357                       # number of WritebackDirty accesses(hits+misses)
system.l2.WritebackClean_hits::.writebacks       158581                       # number of WritebackClean hits
system.l2.WritebackClean_hits::total           158581                       # number of WritebackClean hits
system.l2.WritebackClean_accesses::.writebacks       158581                       # number of WritebackClean accesses(hits+misses)
system.l2.WritebackClean_accesses::total       158581                       # number of WritebackClean accesses(hits+misses)
system.l2.ReadExReq_hits::.cpu.data             11384                       # number of ReadExReq hits
system.l2.ReadExReq_hits::total                 11384                       # number of ReadExReq hits
system.l2.ReadExReq_misses::.cpu.data           10890                       # number of ReadExReq misses
system.l2.ReadExReq_misses::total               10890                       # number of ReadExReq misses
system.l2.ReadExReq_miss_latency::.cpu.data   1033267000                       # number of ReadExReq miss cycles
system.l2.ReadExReq_miss_latency::total    1033267000                       # number of ReadExReq miss cycles
system.l2.ReadExReq_accesses::.cpu.data         22274                       # number of ReadExReq accesses(hits+misses)
system.l2.ReadExReq_accesses::total             22274                       # number of ReadExReq accesses(hits+misses)
system.l2.ReadExReq_miss_rate::.cpu.data     0.488911                       # miss rate for ReadExReq accesses
system.l2.ReadExReq_miss_rate::total         0.488911                       # miss rate for ReadExReq accesses
system.l2.ReadExReq_avg_miss_latency::.cpu.data 94882.185491                       # average ReadExReq miss latency
system.l2.ReadExReq_avg_miss_latency::total 94882.185491                       # average ReadExReq miss latency
system.l2.ReadExReq_mshr_misses::.cpu.data        10890                       # number of ReadExReq MSHR misses
system.l2.ReadExReq_mshr_misses::total          10890                       # number of ReadExReq MSHR misses
system.l2.ReadExReq_mshr_miss_latency::.cpu.data    815467000                       # number of ReadExReq MSHR miss cycles
system.l2.ReadExReq_mshr_miss_latency::total    815467000                       # number of ReadExReq MSHR miss cycles
system.l2.ReadExReq_mshr_miss_rate::.cpu.data     0.488911                       # mshr miss rate for ReadExReq accesses
system.l2.ReadExReq_mshr_miss_rate::total     0.488911                       # mshr miss rate for ReadExReq accesses
system.l2.ReadExReq_avg_mshr_miss_latency::.cpu.data 74882.185491                       # average ReadExReq mshr miss latency
system.l2.ReadExReq_avg_mshr_miss_latency::total 74882.185491                       # average ReadExReq mshr miss latency
system.l2.ReadCleanReq_hits::.cpu.inst         157825                       # number of ReadCleanReq hits
system.l2.ReadCleanReq_hits::total             157825                       # number of ReadCleanReq hits
system.l2.ReadCleanReq_misses::.cpu.inst         1726                       # number of ReadCleanReq misses
system.l2.ReadCleanReq_misses::total             1726                       # number of ReadCleanReq misses
system.l2.ReadCleanReq_miss_latency::.cpu.inst    170774000                       # number of ReadCleanReq miss cycles
system.l2.ReadCleanReq_miss_latency::total    170774000                       # number of ReadCleanReq miss cycles
system.l2.ReadCleanReq_accesses::.cpu.inst       159551                       # number of ReadCleanReq accesses(hits+misses)
system.l2.ReadCleanReq_accesses::total         159551                       # number of ReadCleanReq accesses(hits+misses)
system.l2.ReadCleanReq_miss_rate::.cpu.inst     0.010818                       # miss rate for ReadCleanReq accesses
system.l2.ReadCleanReq_miss_rate::total      0.010818                       # miss rate for ReadCleanReq accesses
system.l2.ReadCleanReq_avg_miss_latency::.cpu.inst 98942.062572                       # average ReadCleanReq miss latency
system.l2.ReadCleanReq_avg_miss_latency::total 98942.062572                       # average ReadCleanReq miss latency
system.l2.ReadCleanReq_mshr_misses::.cpu.inst         1726                       # number of ReadCleanReq MSHR misses
system.l2.ReadCleanReq_mshr_misses::total         1726                       # number of ReadCleanReq MSHR misses
system.l2.ReadCleanReq_mshr_miss_latency::.cpu.inst    136274000                       # number of ReadCleanReq MSHR miss cycles
system.l2.ReadCleanReq_mshr_miss_latency::total    136274000                       # number of ReadCleanReq MSHR miss cycles
system.l2.ReadCleanReq_mshr_miss_rate::.cpu.inst     0.010818                       # mshr miss rate for ReadCleanReq accesses
system.l2.ReadCleanReq_mshr_miss_rate::total     0.010818                       # mshr miss rate for ReadCleanReq accesses
system.l2.ReadCleanReq_avg_mshr_miss_latency::.cpu.inst 78953.650058                       # average ReadCleanReq mshr miss latency
system.l2.ReadCleanReq_avg_mshr_miss_latency::total 78953.650058                       # average ReadCleanReq mshr miss latency
system.l2.ReadSharedReq_hits::.cpu.data        217685                       # number of ReadSharedReq hits
system.l2.ReadSharedReq_hits::total            217685                       # number of ReadSharedReq hits
system.l2.ReadSharedReq_misses::.cpu.data         4361                       # number of ReadSharedReq misses
system.l2.ReadSharedReq_misses::total            4361                       # number of ReadSharedReq misses
system.l2.ReadSharedReq_miss_latency::.cpu.data    431867000                       # number of ReadSharedReq miss cycles
system.l2.ReadSharedReq_miss_latency::total    431867000                       # number of ReadSharedReq miss cycles
system.l2.ReadSharedReq_accesses::.cpu.data       222046                       # number of ReadSharedReq accesses(hits+misses)
system.l2.ReadSharedReq_accesses::total        222046                       # number of ReadSharedReq accesses(hits+misses)
system.l2.ReadSharedReq_miss_rate::.cpu.data     0.019640                       # miss rate for ReadSharedReq accesses
system.l2.ReadSharedReq_miss_rate::total     0.019640                       # miss rate for ReadSharedReq accesses
system.l2.ReadSharedReq_avg_miss_latency::.cpu.data 99029.351066                       # average ReadSharedReq miss latency
system.l2.ReadSharedReq_avg_miss_latency::total 99029.351066                       # average ReadSharedReq miss latency
system.l2.ReadSharedReq_mshr_hits::.cpu.data            1                       # number of ReadSharedReq MSHR hits
system.l2.ReadSharedReq_mshr_hits::total            1                       # number of ReadSharedReq MSHR hits
system.l2.ReadSharedReq_mshr_misses::.cpu.data         4360                       # number of ReadSharedReq MSHR misses
system.l2.ReadSharedReq_mshr_misses::total         4360                       # number of ReadSharedReq MSHR misses
system.l2.ReadSharedReq_mshr_miss_latency::.cpu.data    344595000                       # number of ReadSharedReq MSHR miss cycles
system.l2.ReadSharedReq_mshr_miss_latency::total    344595000                       # number of ReadSharedReq MSHR miss cycles
system.l2.ReadSharedReq_mshr_miss_rate::.cpu.data     0.019636                       # mshr miss rate for ReadSharedReq accesses
system.l2.ReadSharedReq_mshr_miss_rate::total     0.019636                       # mshr miss rate for ReadSharedReq accesses
system.l2.ReadSharedReq_avg_mshr_miss_latency::.cpu.data 79035.550459                       # average ReadSharedReq mshr miss latency
system.l2.ReadSharedReq_avg_mshr_miss_latency::total 79035.550459                       # average ReadSharedReq mshr miss latency
system.l2.tags.pwrStateResidencyTicks::UNDEFINED  38622188000                       # Cumulative time (in ticks) in various power states
system.l2.tags.tagsinuse                 10420.438503                       # Cycle average of tags in use
system.l2.tags.total_refs                      805640                       # Total number of references to valid blocks.
system.l2.tags.sampled_refs                     16975                       # Sample count of references to valid blocks.
system.l2.tags.avg_refs                     47.460383                       # Average number of references to valid blocks.
system.l2.tags.warmup_cycle                     86000                       # Cycle when the warmup percentage was hit.
system.l2.tags.occ_blocks::.cpu.inst      1441.935635                       # Average occupied blocks per requestor
system.l2.tags.occ_blocks::.cpu.data      8978.502869                       # Average occupied blocks per requestor
system.l2.tags.occ_percent::.cpu.inst        0.044004                       # Average percentage of cache occupancy
system.l2.tags.occ_percent::.cpu.data        0.274002                       # Average percentage of cache occupancy
system.l2.tags.occ_percent::total            0.318007                       # Average percentage of cache occupancy
system.l2.tags.occ_task_id_blocks::1024         16975                       # Occupied blocks per task id
system.l2.tags.age_task_id_blocks_1024::0           77                       # Occupied blocks per task id
system.l2.tags.age_task_id_blocks_1024::1            8                       # Occupied blocks per task id
system.l2.tags.age_task_id_blocks_1024::2          394                       # Occupied blocks per task id
system.l2.tags.age_task_id_blocks_1024::3         4033                       # Occupied blocks per task id
system.l2.tags.age_task_id_blocks_1024::4        12463                       # Occupied blocks per task id
system.l2.tags.occ_task_id_percent::1024     0.518036                       # Percentage of cache occupancy per task id
system.l2.tags.tag_accesses                   6462111                       # Number of tag accesses
system.l2.tags.data_accesses                  6462111                       # Number of data accesses
system.cpu_voltage_domain.voltage                   1                       # Voltage in Volts
system.mem_ctrls.pwrStateResidencyTicks::UNDEFINED  38622188000                       # Cumulative time (in ticks) in various power states
system.mem_ctrls.bytes_read::.cpu.inst         110400                       # Number of bytes read from this memory
system.mem_ctrls.bytes_read::.cpu.data         976000                       # Number of bytes read from this memory
system.mem_ctrls.bytes_read::total            1086400                       # Number of bytes read from this memory
system.mem_ctrls.bytes_inst_read::.cpu.inst       110400                       # Number of instructions bytes read from this memory
system.mem_ctrls.bytes_inst_read::total        110400                       # Number of instructions bytes read from this memory
system.mem_ctrls.num_reads::.cpu.inst            1725                       # Number of read requests responded to by this memory
system.mem_ctrls.num_reads::.cpu.data           15250                       # Number of read requests responded to by this memory
system.mem_ctrls.num_reads::total               16975                       # Number of read requests responded to by this memory
system.mem_ctrls.bw_read::.cpu.inst           2858461                       # Total read bandwidth from this memory (bytes/s)
system.mem_ctrls.bw_read::.cpu.data          25270448                       # Total read bandwidth from this memory (bytes/s)
system.mem_ctrls.bw_read::total              28128909                       # Total read bandwidth from this memory (bytes/s)
system.mem_ctrls.bw_inst_read::.cpu.inst      2858461                       # Instruction read bandwidth from this memory (bytes/s)
system.mem_ctrls.bw_inst_read::total          2858461                       # Instruction read bandwidth from this memory (bytes/s)
system.mem_ctrls.bw_total::.cpu.inst          2858461                       # Total bandwidth to/from this memory (bytes/s)
system.mem_ctrls.bw_total::.cpu.data         25270448                       # Total bandwidth to/from this memory (bytes/s)
system.mem_ctrls.bw_total::total             28128909                       # Total bandwidth to/from this memory (bytes/s)
system.mem_ctrls.avgPriority_.cpu.inst::samples      1725.00                       # Average QoS priority value for accepted requests
system.mem_ctrls.avgPriority_.cpu.data::samples     15250.00                       # Average QoS priority value for accepted requests
system.mem_ctrls.priorityMinLatency      0.000000018750                       # per QoS priority minimum request to response latency (s)
system.mem_ctrls.priorityMaxLatency      0.000000580000                       # per QoS priority maximum request to response latency (s)
system.mem_ctrls.numReadWriteTurnArounds            0                       # Number of turnarounds from READ to WRITE
system.mem_ctrls.numWriteReadTurnArounds            0                       # Number of turnarounds from WRITE to READ
system.mem_ctrls.numStayReadState               43836                       # Number of times bus staying in READ state
system.mem_ctrls.numStayWriteState                  0                       # Number of times bus staying in WRITE state
system.mem_ctrls.readReqs                       16975                       # Number of read requests accepted
system.mem_ctrls.writeReqs                          0                       # Number of write requests accepted
system.mem_ctrls.readBursts                     16975                       # Number of DRAM read bursts, including those serviced by the write queue
system.mem_ctrls.writeBursts                        0                       # Number of DRAM write bursts, including those merged in the write queue
system.mem_ctrls.servicedByWrQ                      0                       # Number of DRAM read bursts serviced by the write queue
system.mem_ctrls.mergedWrBursts                     0                       # Number of DRAM write bursts merged with an existing one
system.mem_ctrls.neitherReadNorWriteReqs            0                       # Number of requests that are neither read nor write
system.mem_ctrls.perBankRdBursts::0               969                       # Per bank write bursts
system.mem_ctrls.perBankRdBursts::1              1060                       # Per bank write bursts
system.mem_ctrls.perBankRdBursts::2              1043                       # Per bank write bursts
system.mem_ctrls.perBankRdBursts::3              1132                       # Per bank write bursts
system.mem_ctrls.perBankRdBursts::4              1278                       # Per bank write bursts
system.mem_ctrls.perBankRdBursts::5              1167                       # Per bank write bursts
system.mem_ctrls.perBankRdBursts::6              1020                       # Per bank write bursts
system.mem_ctrls.perBankRdBursts::7              1044                       # Per bank write bursts
system.mem_ctrls.perBankRdBursts::8              1110                       # Per bank write bursts
system.mem_ctrls.perBankRdBursts::9              1028                       # Per bank write bursts
system.mem_ctrls.perBankRdBursts::10              923                       # Per bank write bursts
system.mem_ctrls.perBankRdBursts::11             1090                       # Per bank write bursts
system.mem_ctrls.perBankRdBursts::12             1266                       # Per bank write bursts
system.mem_ctrls.perBankRdBursts::13             1061                       # Per bank write bursts
system.mem_ctrls.perBankRdBursts::14              919                       # Per bank write bursts
system.mem_ctrls.perBankRdBursts::15              865                       # Per bank write bursts
system.mem_ctrls.perBankWrBursts::0                 0                       # Per bank write bursts
system.mem_ctrls.perBankWrBursts::1                 0                       # Per bank write bursts
system.mem_ctrls.perBankWrBursts::2                 0                       # Per bank write bursts
system.mem_ctrls.perBankWrBursts::3                 0                       # Per bank write bursts
system.mem_ctrls.perBankWrBursts::4                 0                       # Per bank write bursts
system.mem_ctrls.perBankWrBursts::5                 0                       # Per bank write bursts
system.mem_ctrls.perBankWrBursts::6                 0                       # Per bank write bursts
system.mem_ctrls.perBankWrBursts::7                 0                       # Per bank write bursts
system.mem_ctrls.perBankWrBursts::8                 0                       # Per bank write bursts
system.mem_ctrls.perBankWrBursts::9                 0                       # Per bank write bursts
system.mem_ctrls.perBankWrBursts::10                0                       # Per bank write bursts
system.mem_ctrls.perBankWrBursts::11                0                       # Per bank write bursts
system.mem_ctrls.perBankWrBursts::12                0                       # Per bank write bursts
system.mem_ctrls.perBankWrBursts::13                0                       # Per bank write bursts
system.mem_ctrls.perBankWrBursts::14                0                       # Per bank write bursts
system.mem_ctrls.perBankWrBursts::15                0                       # Per bank write bursts
system.mem_ctrls.avgRdQLen                       1.04                       # Average read queue length when enqueuing
system.mem_ctrls.avgWrQLen                       0.00                       # Average write queue length when enqueuing
system.mem_ctrls.totQLat                    107399250                       # Total ticks spent queuing
[...]
system.cpu.interrupts.clk_domain.clock          16000                       # Clock period in ticks
system.cpu.itb_walker_cache.pwrStateResidencyTicks::UNDEFINED  38622188000                       # Cumulative time (in ticks) in various power states
system.cpu.itb_walker_cache.blocked_cycles::no_mshrs            0                       # number of cycles access was blocked
system.cpu.itb_walker_cache.blocked_cycles::no_targets            0                       # number of cycles access was blocked
system.cpu.itb_walker_cache.blocked::no_mshrs            0                       # number of cycles access was blocked
system.cpu.itb_walker_cache.blocked::no_targets            0                       # number of cycles access was blocked
system.cpu.itb_walker_cache.avg_blocked_cycles::no_mshrs          nan                       # average number of cycles each access was blocked
system.cpu.itb_walker_cache.avg_blocked_cycles::no_targets          nan                       # average number of cycles each access was blocked
system.cpu.itb_walker_cache.replacements            0                       # number of replacements
system.cpu.itb_walker_cache.tags.pwrStateResidencyTicks::UNDEFINED  38622188000                       # Cumulative time (in ticks) in various power states
system.cpu.itb_walker_cache.tags.tagsinuse            0                       # Cycle average of tags in use
system.cpu.itb_walker_cache.tags.total_refs            0                       # Total number of references to valid blocks.
system.cpu.itb_walker_cache.tags.sampled_refs            0                       # Sample count of references to valid blocks.
system.cpu.itb_walker_cache.tags.avg_refs          nan                       # Average number of references to valid blocks.
system.cpu.itb_walker_cache.tags.warmup_cycle            0                       # Cycle when the warmup percentage was hit.
system.cpu.itb_walker_cache.tags.tag_accesses            0                       # Number of tag accesses
system.cpu.itb_walker_cache.tags.data_accesses            0                       # Number of data accesses
system.cpu.itb.walker.pwrStateResidencyTicks::UNDEFINED  38622188000                       # Cumulative time (in ticks) in various power states
system.cpu.dtb_walker_cache.pwrStateResidencyTicks::UNDEFINED  38622188000                       # Cumulative time (in ticks) in various power states
system.cpu.dtb_walker_cache.blocked_cycles::no_mshrs            0                       # number of cycles access was blocked
system.cpu.dtb_walker_cache.blocked_cycles::no_targets            0                       # number of cycles access was blocked
system.cpu.dtb_walker_cache.blocked::no_mshrs            0                       # number of cycles access was blocked
system.cpu.dtb_walker_cache.blocked::no_targets            0                       # number of cycles access was blocked
system.cpu.dtb_walker_cache.avg_blocked_cycles::no_mshrs          nan                       # average number of cycles each access was blocked
system.cpu.dtb_walker_cache.avg_blocked_cycles::no_targets          nan                       # average number of cycles each access was blocked
system.cpu.dtb_walker_cache.replacements            0                       # number of replacements
system.cpu.dtb_walker_cache.tags.pwrStateResidencyTicks::UNDEFINED  38622188000                       # Cumulative time (in ticks) in various power states
system.cpu.dtb_walker_cache.tags.tagsinuse            0                       # Cycle average of tags in use
system.cpu.dtb_walker_cache.tags.total_refs            0                       # Total number of references to valid blocks.
system.cpu.dtb_walker_cache.tags.sampled_refs            0                       # Sample count of references to valid blocks.
system.cpu.dtb_walker_cache.tags.avg_refs          nan                       # Average number of references to valid blocks.
system.cpu.dtb_walker_cache.tags.warmup_cycle            0                       # Cycle when the warmup percentage was hit.
system.cpu.dtb_walker_cache.tags.tag_accesses            0                       # Number of tag accesses
system.cpu.dtb_walker_cache.tags.data_accesses            0                       # Number of data accesses
system.cpu.dcache.pwrStateResidencyTicks::UNDEFINED  38622188000                       # Cumulative time (in ticks) in various power states
system.cpu.dcache.demand_hits::.cpu.data     25671617                       # number of demand (read+write) hits
system.cpu.dcache.demand_hits::total         25671617                       # number of demand (read+write) hits
system.cpu.dcache.overall_hits::.cpu.data     25671644                       # number of overall hits
system.cpu.dcache.overall_hits::total        25671644                       # number of overall hits
system.cpu.dcache.demand_misses::.cpu.data       667516                       # number of demand (read+write) misses
system.cpu.dcache.demand_misses::total         667516                       # number of demand (read+write) misses
system.cpu.dcache.overall_misses::.cpu.data       670989                       # number of overall misses
system.cpu.dcache.overall_misses::total        670989                       # number of overall misses
system.cpu.dcache.demand_miss_latency::.cpu.data  14773934995                       # number of demand (read+write) miss cycles
system.cpu.dcache.demand_miss_latency::total  14773934995                       # number of demand (read+write) miss cycles
system.cpu.dcache.overall_miss_latency::.cpu.data  14773934995                       # number of overall miss cycles
system.cpu.dcache.overall_miss_latency::total  14773934995                       # number of overall miss cycles
system.cpu.dcache.demand_accesses::.cpu.data     26339133                       # number of demand (read+write) accesses
system.cpu.dcache.demand_accesses::total     26339133                       # number of demand (read+write) accesses
system.cpu.dcache.overall_accesses::.cpu.data     26342633                       # number of overall (read+write) accesses
system.cpu.dcache.overall_accesses::total     26342633                       # number of overall (read+write) accesses
system.cpu.dcache.demand_miss_rate::.cpu.data     0.025343                       # miss rate for demand accesses
system.cpu.dcache.demand_miss_rate::total     0.025343                       # miss rate for demand accesses
system.cpu.dcache.overall_miss_rate::.cpu.data     0.025472                       # miss rate for overall accesses
system.cpu.dcache.overall_miss_rate::total     0.025472                       # miss rate for overall accesses
system.cpu.dcache.demand_avg_miss_latency::.cpu.data 22132.705426                       # average overall miss latency
system.cpu.dcache.demand_avg_miss_latency::total 22132.705426                       # average overall miss latency
system.cpu.dcache.overall_avg_miss_latency::.cpu.data 22018.147831                       # average overall miss latency
system.cpu.dcache.overall_avg_miss_latency::total 22018.147831                       # average overall miss latency
system.cpu.dcache.blocked_cycles::no_mshrs        52926                       # number of cycles access was blocked
system.cpu.dcache.blocked_cycles::no_targets          289                       # number of cycles access was blocked
system.cpu.dcache.blocked::no_mshrs              2707                       # number of cycles access was blocked
system.cpu.dcache.blocked::no_targets               2                       # number of cycles access was blocked
system.cpu.dcache.avg_blocked_cycles::no_mshrs    19.551533                       # average number of cycles each access was blocked
system.cpu.dcache.avg_blocked_cycles::no_targets   144.500000                       # average number of cycles each access was blocked
system.cpu.dcache.writebacks::.writebacks       231357                       # number of writebacks
system.cpu.dcache.writebacks::total            231357                       # number of writebacks
system.cpu.dcache.demand_mshr_hits::.cpu.data       426669                       # number of demand (read+write) MSHR hits
system.cpu.dcache.demand_mshr_hits::total       426669                       # number of demand (read+write) MSHR hits
system.cpu.dcache.overall_mshr_hits::.cpu.data       426669                       # number of overall MSHR hits
system.cpu.dcache.overall_mshr_hits::total       426669                       # number of overall MSHR hits
system.cpu.dcache.demand_mshr_misses::.cpu.data       240847                       # number of demand (read+write) MSHR misses
system.cpu.dcache.demand_mshr_misses::total       240847                       # number of demand (read+write) MSHR misses
system.cpu.dcache.overall_mshr_misses::.cpu.data       244320                       # number of overall MSHR misses
system.cpu.dcache.overall_mshr_misses::total       244320                       # number of overall MSHR misses
system.cpu.dcache.demand_mshr_miss_latency::.cpu.data   6799981995                       # number of demand (read+write) MSHR miss cycles
system.cpu.dcache.demand_mshr_miss_latency::total   6799981995                       # number of demand (read+write) MSHR miss cycles
system.cpu.dcache.overall_mshr_miss_latency::.cpu.data   7020884995                       # number of overall MSHR miss cycles
system.cpu.dcache.overall_mshr_miss_latency::total   7020884995                       # number of overall MSHR miss cycles
system.cpu.dcache.demand_mshr_miss_rate::.cpu.data     0.009144                       # mshr miss rate for demand accesses
system.cpu.dcache.demand_mshr_miss_rate::total     0.009144                       # mshr miss rate for demand accesses
system.cpu.dcache.overall_mshr_miss_rate::.cpu.data     0.009275                       # mshr miss rate for overall accesses
system.cpu.dcache.overall_mshr_miss_rate::total     0.009275                       # mshr miss rate for overall accesses
system.cpu.dcache.demand_avg_mshr_miss_latency::.cpu.data 28233.617172                       # average overall mshr miss latency
system.cpu.dcache.demand_avg_mshr_miss_latency::total 28233.617172                       # average overall mshr miss latency
system.cpu.dcache.overall_avg_mshr_miss_latency::.cpu.data 28736.431708                       # average overall mshr miss latency
system.cpu.dcache.overall_avg_mshr_miss_latency::total 28736.431708                       # average overall mshr miss latency
system.cpu.dcache.replacements                 243296                       # number of replacements
system.cpu.dcache.ReadReq_hits::.cpu.data     16648025                       # number of ReadReq hits
system.cpu.dcache.ReadReq_hits::total        16648025                       # number of ReadReq hits
system.cpu.dcache.ReadReq_misses::.cpu.data       645124                       # number of ReadReq misses
system.cpu.dcache.ReadReq_misses::total        645124                       # number of ReadReq misses
system.cpu.dcache.ReadReq_miss_latency::.cpu.data  13387019000                       # number of ReadReq miss cycles
system.cpu.dcache.ReadReq_miss_latency::total  13387019000                       # number of ReadReq miss cycles
system.cpu.dcache.ReadReq_accesses::.cpu.data     17293149                       # number of ReadReq accesses(hits+misses)
system.cpu.dcache.ReadReq_accesses::total     17293149                       # number of ReadReq accesses(hits+misses)
system.cpu.dcache.ReadReq_miss_rate::.cpu.data     0.037305                       # miss rate for ReadReq accesses
system.cpu.dcache.ReadReq_miss_rate::total     0.037305                       # miss rate for ReadReq accesses
system.cpu.dcache.ReadReq_avg_miss_latency::.cpu.data 20751.078862                       # average ReadReq miss latency
system.cpu.dcache.ReadReq_avg_miss_latency::total 20751.078862                       # average ReadReq miss latency
system.cpu.dcache.ReadReq_mshr_hits::.cpu.data       426551                       # number of ReadReq MSHR hits
system.cpu.dcache.ReadReq_mshr_hits::total       426551                       # number of ReadReq MSHR hits
system.cpu.dcache.ReadReq_mshr_misses::.cpu.data       218573                       # number of ReadReq MSHR misses
system.cpu.dcache.ReadReq_mshr_misses::total       218573                       # number of ReadReq MSHR misses
system.cpu.dcache.ReadReq_mshr_miss_latency::.cpu.data   5459633000                       # number of ReadReq MSHR miss cycles
system.cpu.dcache.ReadReq_mshr_miss_latency::total   5459633000                       # number of ReadReq MSHR miss cycles
system.cpu.dcache.ReadReq_mshr_miss_rate::.cpu.data     0.012639                       # mshr miss rate for ReadReq accesses
system.cpu.dcache.ReadReq_mshr_miss_rate::total     0.012639                       # mshr miss rate for ReadReq accesses
system.cpu.dcache.ReadReq_avg_mshr_miss_latency::.cpu.data 24978.533488                       # average ReadReq mshr miss latency
system.cpu.dcache.ReadReq_avg_mshr_miss_latency::total 24978.533488                       # average ReadReq mshr miss latency
system.cpu.dcache.WriteReq_hits::.cpu.data      9023592                       # number of WriteReq hits
system.cpu.dcache.WriteReq_hits::total        9023592                       # number of WriteReq hits
system.cpu.dcache.WriteReq_misses::.cpu.data        22392                       # number of WriteReq misses
system.cpu.dcache.WriteReq_misses::total        22392                       # number of WriteReq misses
system.cpu.dcache.WriteReq_miss_latency::.cpu.data   1386915995                       # number of WriteReq miss cycles
system.cpu.dcache.WriteReq_miss_latency::total   1386915995                       # number of WriteReq miss cycles
system.cpu.dcache.WriteReq_accesses::.cpu.data      9045984                       # number of WriteReq accesses(hits+misses)
system.cpu.dcache.WriteReq_accesses::total      9045984                       # number of WriteReq accesses(hits+misses)
system.cpu.dcache.WriteReq_miss_rate::.cpu.data     0.002475                       # miss rate for WriteReq accesses
system.cpu.dcache.WriteReq_miss_rate::total     0.002475                       # miss rate for WriteReq accesses
system.cpu.dcache.WriteReq_avg_miss_latency::.cpu.data 61938.013353                       # average WriteReq miss latency
system.cpu.dcache.WriteReq_avg_miss_latency::total 61938.013353                       # average WriteReq miss latency
system.cpu.dcache.WriteReq_mshr_hits::.cpu.data          118                       # number of WriteReq MSHR hits
system.cpu.dcache.WriteReq_mshr_hits::total          118                       # number of WriteReq MSHR hits
system.cpu.dcache.WriteReq_mshr_misses::.cpu.data        22274                       # number of WriteReq MSHR misses
system.cpu.dcache.WriteReq_mshr_misses::total        22274                       # number of WriteReq MSHR misses
system.cpu.dcache.WriteReq_mshr_miss_latency::.cpu.data   1340348995                       # number of WriteReq MSHR miss cycles
system.cpu.dcache.WriteReq_mshr_miss_latency::total   1340348995                       # number of WriteReq MSHR miss cycles
system.cpu.dcache.WriteReq_mshr_miss_rate::.cpu.data     0.002462                       # mshr miss rate for WriteReq accesses
system.cpu.dcache.WriteReq_mshr_miss_rate::total     0.002462                       # mshr miss rate for WriteReq accesses
system.cpu.dcache.WriteReq_avg_mshr_miss_latency::.cpu.data 60175.495870                       # average WriteReq mshr miss latency
system.cpu.dcache.WriteReq_avg_mshr_miss_latency::total 60175.495870                       # average WriteReq mshr miss latency
system.cpu.dcache.SoftPFReq_hits::.cpu.data           27                       # number of SoftPFReq hits
system.cpu.dcache.SoftPFReq_hits::total            27                       # number of SoftPFReq hits
system.cpu.dcache.SoftPFReq_misses::.cpu.data         3473                       # number of SoftPFReq misses
system.cpu.dcache.SoftPFReq_misses::total         3473                       # number of SoftPFReq misses
system.cpu.dcache.SoftPFReq_accesses::.cpu.data         3500                       # number of SoftPFReq accesses(hits+misses)
system.cpu.dcache.SoftPFReq_accesses::total         3500                       # number of SoftPFReq accesses(hits+misses)
system.cpu.dcache.SoftPFReq_miss_rate::.cpu.data     0.992286                       # miss rate for SoftPFReq accesses
system.cpu.dcache.SoftPFReq_miss_rate::total     0.992286                       # miss rate for SoftPFReq accesses
system.cpu.dcache.SoftPFReq_mshr_misses::.cpu.data         3473                       # number of SoftPFReq MSHR misses
system.cpu.dcache.SoftPFReq_mshr_misses::total         3473                       # number of SoftPFReq MSHR misses
system.cpu.dcache.SoftPFReq_mshr_miss_latency::.cpu.data    220903000                       # number of SoftPFReq MSHR miss cycles
system.cpu.dcache.SoftPFReq_mshr_miss_latency::total    220903000                       # number of SoftPFReq MSHR miss cycles
system.cpu.dcache.SoftPFReq_mshr_miss_rate::.cpu.data     0.992286                       # mshr miss rate for SoftPFReq accesses
system.cpu.dcache.SoftPFReq_mshr_miss_rate::total     0.992286                       # mshr miss rate for SoftPFReq accesses
system.cpu.dcache.SoftPFReq_avg_mshr_miss_latency::.cpu.data 63605.816297                       # average SoftPFReq mshr miss latency
system.cpu.dcache.SoftPFReq_avg_mshr_miss_latency::total 63605.816297                       # average SoftPFReq mshr miss latency
system.cpu.dcache.tags.pwrStateResidencyTicks::UNDEFINED  38622188000                       # Cumulative time (in ticks) in various power states
system.cpu.dcache.tags.tagsinuse          1022.133675                       # Cycle average of tags in use
system.cpu.dcache.tags.total_refs            25915964                       # Total number of references to valid blocks.
system.cpu.dcache.tags.sampled_refs            244320                       # Sample count of references to valid blocks.
system.cpu.dcache.tags.avg_refs            106.073854                       # Average number of references to valid blocks.
system.cpu.dcache.tags.warmup_cycle            223000                       # Cycle when the warmup percentage was hit.
system.cpu.dcache.tags.occ_blocks::.cpu.data  1022.133675                       # Average occupied blocks per requestor
system.cpu.dcache.tags.occ_percent::.cpu.data     0.998177                       # Average percentage of cache occupancy
system.cpu.dcache.tags.occ_percent::total     0.998177                       # Average percentage of cache occupancy
system.cpu.dcache.tags.occ_task_id_blocks::1024         1024                       # Occupied blocks per task id
system.cpu.dcache.tags.age_task_id_blocks_1024::0           61                       # Occupied blocks per task id
system.cpu.dcache.tags.age_task_id_blocks_1024::1          661                       # Occupied blocks per task id
system.cpu.dcache.tags.age_task_id_blocks_1024::2           11                       # Occupied blocks per task id
system.cpu.dcache.tags.age_task_id_blocks_1024::3           28                       # Occupied blocks per task id
system.cpu.dcache.tags.age_task_id_blocks_1024::4          263                       # Occupied blocks per task id
system.cpu.dcache.tags.occ_task_id_percent::1024            1                       # Percentage of cache occupancy per task id
system.cpu.dcache.tags.tag_accesses         210985384                       # Number of tag accesses
system.cpu.dcache.tags.data_accesses        210985384                       # Number of data accesses

---------- End Simulation Statistics   ----------
