
---------- Begin Simulation Statistics ----------
final_tick                                38537420000                       # Number of ticks from beginning of simulation (restored from checkpoints and never reset)
host_inst_rate                                 153095                       # Simulator instruction rate (inst/s)
host_mem_usage                                 842504                       # Number of bytes of host memory used
host_op_rate                                   257043                       # Simulator op (including micro ops) rate (op/s)
host_seconds                                   379.05                       # Real time elapsed on the host
host_tick_rate                              101667537                       # Simulator tick rate (ticks/s)
sim_freq                                 1000000000000                       # Frequency of simulated ticks
sim_insts                                    58031203                       # Number of instructions simulated
sim_ops                                      97433054                       # Number of ops (including micro ops) simulated
sim_seconds                                  0.038537                       # Number of seconds simulated
sim_ticks                                 38537420000                       # Number of ticks simulated
system.cpu.branchPred.BTBCorrect                    0                       # Number of correct BTB predictions (this stat may not work properly.
system.cpu.branchPred.BTBHitPct              0.000000                       # BTB Hit Percentage
system.cpu.branchPred.BTBHits                       0                       # Number of BTB hits
system.cpu.branchPred.BTBLookups              7127737                       # Number of BTB lookups
system.cpu.branchPred.RASInCorrect                 47                       # Number of incorrect RAS predictions.
system.cpu.branchPred.condIncorrect            392186                       # Number of conditional branches incorrect
system.cpu.branchPred.condPredicted           7341089                       # Number of conditional branches predicted
system.cpu.branchPred.indirectHits            4393068                       # Number of indirect target hits.
system.cpu.branchPred.indirectLookups         7127737                       # Number of indirect predictor lookups.
system.cpu.branchPred.indirectMisses          2734669                       # Number of indirect misses.
system.cpu.branchPred.lookups                 8287023                       # Number of BP lookups
system.cpu.branchPred.usedRAS                  467253                       # Number of times the RAS was used to get a target.
system.cpu.branchPredindirectMispredicted       249108                       # Number of mispredicted indirect branches.
system.cpu.cc_regfile_reads                  36375317                       # number of cc regfile reads
system.cpu.cc_regfile_writes                 27665020                       # number of cc regfile writes
system.cpu.commit.amos                              0                       # Number of atomic instructions committed
system.cpu.commit.branchMispredicts            392244                       # The number of times a branch was mispredicted
system.cpu.commit.branches                    6128620                       # Number of branches committed
system.cpu.commit.bw_lim_events               7028203                       # number cycles where commit BW limit reached
system.cpu.commit.commitNonSpecStalls             342                       # The number of times commit has been forced to stall to communicate backwards
system.cpu.commit.commitSquashedInsts        11696014                       # The number of squashed insts skipped by commit
system.cpu.commit.committedInsts             58031203                       # Number of instructions committed
system.cpu.commit.committedOps               97433054                       # Number of ops (including micro ops) committed
system.cpu.commit.committed_per_cycle::samples     36722520                       # Number of insts commited each cycle
system.cpu.commit.committed_per_cycle::mean     2.653224                       # Number of insts commited each cycle
system.cpu.commit.committed_per_cycle::stdev     3.069975                       # Number of insts commited each cycle
system.cpu.commit.committed_per_cycle::underflows            0      0.00%      0.00% # Number of insts commited each cycle
system.cpu.commit.committed_per_cycle::0     14335219     39.04%     39.04% # Number of insts commited each cycle
system.cpu.commit.committed_per_cycle::1      4459553     12.14%     51.18% # Number of insts commited each cycle
system.cpu.commit.committed_per_cycle::2      4418689     12.03%     63.21% # Number of insts commited each cycle
system.cpu.commit.committed_per_cycle::3      2811743      7.66%     70.87% # Number of insts commited each cycle
system.cpu.commit.committed_per_cycle::4      1189857      3.24%     74.11% # Number of insts commited each cycle
system.cpu.commit.committed_per_cycle::5       576092      1.57%     75.68% # Number of insts commited each cycle
system.cpu.commit.committed_per_cycle::6      1486766      4.05%     79.73% # Number of insts commited each cycle
system.cpu.commit.committed_per_cycle::7       416398      1.13%     80.86% # Number of insts commited each cycle
system.cpu.commit.committed_per_cycle::8      7028203     19.14%    100.00% # Number of insts commited each cycle
system.cpu.commit.committed_per_cycle::overflows            0      0.00%    100.00% # Number of insts commited each cycle
system.cpu.commit.committed_per_cycle::min_value            0                       # Number of insts commited each cycle
system.cpu.commit.committed_per_cycle::max_value            8                       # Number of insts commited each cycle
system.cpu.commit.committed_per_cycle::total     36722520                       # Number of insts commited each cycle
system.cpu.commit.fp_insts                   15257866                       # Number of committed floating point instructions.
system.cpu.commit.function_calls               331381                       # Number of function calls committed.
system.cpu.commit.int_insts                  88475678                       # Number of committed integer instructions.
system.cpu.commit.loads                      29041349                       # Number of loads committed
system.cpu.commit.membars                           0                       # Number of memory barriers committed
system.cpu.commit.op_class_0::No_OpClass       396158      0.41%      0.41% # Class of committed instruction
system.cpu.commit.op_class_0::IntAlu         49791704     51.10%     51.51% # Class of committed instruction
system.cpu.commit.op_class_0::IntMult           41115      0.04%     51.55% # Class of committed instruction
system.cpu.commit.op_class_0::IntDiv           555804      0.57%     52.12% # Class of committed instruction
system.cpu.commit.op_class_0::FloatAdd        4888605      5.02%     57.14% # Class of committed instruction
system.cpu.commit.op_class_0::FloatCmp              0      0.00%     57.14% # Class of committed instruction
system.cpu.commit.op_class_0::FloatCvt            240      0.00%     57.14% # Class of committed instruction
system.cpu.commit.op_class_0::FloatMult             0      0.00%     57.14% # Class of committed instruction
system.cpu.commit.op_class_0::FloatMultAcc            0      0.00%     57.14% # Class of committed instruction
system.cpu.commit.op_class_0::FloatDiv              0      0.00%     57.14% # Class of committed instruction
system.cpu.commit.op_class_0::FloatMisc             0      0.00%     57.14% # Class of committed instruction
system.cpu.commit.op_class_0::FloatSqrt             0      0.00%     57.14% # Class of committed instruction
system.cpu.commit.op_class_0::SimdAdd               0      0.00%     57.14% # Class of committed instruction
system.cpu.commit.op_class_0::SimdAddAcc            0      0.00%     57.14% # Class of committed instruction
system.cpu.commit.op_class_0::SimdAlu           55888      0.06%     57.20% # Class of committed instruction
system.cpu.commit.op_class_0::SimdCmp               0      0.00%     57.20% # Class of committed instruction
system.cpu.commit.op_class_0::SimdCvt           74006      0.08%     57.27% # Class of committed instruction
system.cpu.commit.op_class_0::SimdMisc         211704      0.22%     57.49% # Class of committed instruction
system.cpu.commit.op_class_0::SimdMult              0      0.00%     57.49% # Class of committed instruction
system.cpu.commit.op_class_0::SimdMultAcc            0      0.00%     57.49% # Class of committed instruction
system.cpu.commit.op_class_0::SimdShift             0      0.00%     57.49% # Class of committed instruction
system.cpu.commit.op_class_0::SimdShiftAcc            0      0.00%     57.49% # Class of committed instruction
system.cpu.commit.op_class_0::SimdDiv               0      0.00%     57.49% # Class of committed instruction
system.cpu.commit.op_class_0::SimdSqrt              0      0.00%     57.49% # Class of committed instruction
system.cpu.commit.op_class_0::SimdFloatAdd      1642100      1.69%     59.18% # Class of committed instruction
system.cpu.commit.op_class_0::SimdFloatAlu            0      0.00%     59.18% # Class of committed instruction
system.cpu.commit.op_class_0::SimdFloatCmp            0      0.00%     59.18% # Class of committed instruction
system.cpu.commit.op_class_0::SimdFloatCvt        23310      0.02%     59.20% # Class of committed instruction
system.cpu.commit.op_class_0::SimdFloatDiv        19110      0.02%     59.22% # Class of committed instruction
system.cpu.commit.op_class_0::SimdFloatMisc            0      0.00%     59.22% # Class of committed instruction
system.cpu.commit.op_class_0::SimdFloatMult      1646080      1.69%     60.91% # Class of committed instruction
system.cpu.commit.op_class_0::SimdFloatMultAcc            0      0.00%     60.91% # Class of committed instruction
system.cpu.commit.op_class_0::SimdFloatSqrt            0      0.00%     60.91% # Class of committed instruction
system.cpu.commit.op_class_0::SimdReduceAdd            0      0.00%     60.91% # Class of committed instruction
system.cpu.commit.op_class_0::SimdReduceAlu            0      0.00%     60.91% # Class of committed instruction
system.cpu.commit.op_class_0::SimdReduceCmp            0      0.00%     60.91% # Class of committed instruction
system.cpu.commit.op_class_0::SimdFloatReduceAdd            0      0.00%     60.91% # Class of committed instruction
system.cpu.commit.op_class_0::SimdFloatReduceCmp            0      0.00%     60.91% # Class of committed instruction
system.cpu.commit.op_class_0::SimdAes               0      0.00%     60.91% # Class of committed instruction
system.cpu.commit.op_class_0::SimdAesMix            0      0.00%     60.91% # Class of committed instruction
system.cpu.commit.op_class_0::SimdSha1Hash            0      0.00%     60.91% # Class of committed instruction
system.cpu.commit.op_class_0::SimdSha1Hash2            0      0.00%     60.91% # Class of committed instruction
system.cpu.commit.op_class_0::SimdSha256Hash            0      0.00%     60.91% # Class of committed instruction
system.cpu.commit.op_class_0::SimdSha256Hash2            0      0.00%     60.91% # Class of committed instruction
system.cpu.commit.op_class_0::SimdShaSigma2            0      0.00%     60.91% # Class of committed instruction
system.cpu.commit.op_class_0::SimdShaSigma3            0      0.00%     60.91% # Class of committed instruction
system.cpu.commit.op_class_0::SimdPredAlu            0      0.00%     60.91% # Class of committed instruction
system.cpu.commit.op_class_0::MemRead        24082189     24.72%     85.63% # Class of committed instruction
system.cpu.commit.op_class_0::MemWrite        7400535      7.60%     93.22% # Class of committed instruction
system.cpu.commit.op_class_0::FloatMemRead      4959160      5.09%     98.31% # Class of committed instruction
system.cpu.commit.op_class_0::FloatMemWrite      1645346      1.69%    100.00% # Class of committed instruction
system.cpu.commit.op_class_0::IprAccess             0      0.00%    100.00% # Class of committed instruction
system.cpu.commit.op_class_0::InstPrefetch            0      0.00%    100.00% # Class of committed instruction
system.cpu.commit.op_class_0::total          97433054                       # Class of committed instruction
system.cpu.commit.refs                       38087230                       # Number of memory references committed
system.cpu.commit.swp_count                         0                       # Number of s/w prefetches committed
system.cpu.commit.vec_insts                         0                       # Number of committed Vector instructions.
system.cpu.committedInsts                    58031203                       # Number of Instructions Simulated
system.cpu.committedOps                      97433054                       # Number of Ops (including micro ops) Simulated
system.cpu.cpi                               0.664081                       # CPI: Cycles Per Instruction
system.cpu.cpi_total                         0.664081                       # CPI: Total CPI of All Threads
system.cpu.decode.BlockedCycles              13135963                       # Number of cycles decode is blocked
system.cpu.decode.DecodedInsts              114254163                       # Number of instructions handled by decode
system.cpu.decode.IdleCycles                  8787223                       # Number of cycles decode is idle
system.cpu.decode.RunCycles                  12326929                       # Number of cycles decode is running
system.cpu.decode.SquashCycles                 396840                       # Number of cycles decode is squashing
system.cpu.decode.UnblockCycles               3790394                       # Number of cycles decode is unblocking
system.cpu.dtb.rdAccesses                    29764402                       # TLB accesses on read requests
system.cpu.dtb.rdMisses                         13135                       # TLB misses on read requests
system.cpu.dtb.wrAccesses                     9278870                       # TLB accesses on write requests
system.cpu.dtb.wrMisses                          2903                       # TLB misses on write requests
system.cpu.fetch.Branches                     8287023                       # Number of branches that fetch encountered
system.cpu.fetch.CacheLines                   7577494                       # Number of cache lines fetched
system.cpu.fetch.Cycles                      26938570                       # Number of cycles fetch has run and was not squashing or blocked
system.cpu.fetch.IcacheSquashes                136141                       # Number of outstanding Icache misses that were squashed
system.cpu.fetch.IcacheWaitRetryStallCycles           87                       # Number of stall cycles due to full MSHR
system.cpu.fetch.Insts                       67727604                       # Number of instructions fetch has processed
system.cpu.fetch.MiscStallCycles                  107                       # Number of cycles fetch has spent waiting on interrupts, or bad addresses, or out of MSHRs
system.cpu.fetch.PendingQuiesceStallCycles          445                       # Number of stall cycles due to pending quiesce instructions
system.cpu.fetch.PendingTrapStallCycles           631                       # Number of stall cycles due to pending traps
system.cpu.fetch.SquashCycles                  793680                       # Number of cycles fetch has spent squashing
system.cpu.fetch.branchRate                  0.215038                       # Number of branch fetches per cycle
system.cpu.fetch.icacheStallCycles           11100669                       # Number of cycles fetch is stalled on an Icache miss
system.cpu.fetch.predictedBranches            4860321                       # Number of branches that fetch has predicted taken
system.cpu.fetch.rate                        1.757450                       # Number of inst fetches per cycle
system.cpu.fetch.rateDist::samples           38437349                       # Number of instructions fetched each cycle (Total)
system.cpu.fetch.rateDist::mean              3.042420                       # Number of instructions fetched each cycle (Total)
system.cpu.fetch.rateDist::stdev             3.568846                       # Number of instructions fetched each cycle (Total)
system.cpu.fetch.rateDist::underflows               0      0.00%      0.00% # Number of instructions fetched each cycle (Total)
system.cpu.fetch.rateDist::0                 19023786     49.49%     49.49% # Number of instructions fetched each cycle (Total)
system.cpu.fetch.rateDist::1                  1909815      4.97%     54.46% # Number of instructions fetched each cycle (Total)
system.cpu.fetch.rateDist::2                  2268678      5.90%     60.36% # Number of instructions fetched each cycle (Total)
system.cpu.fetch.rateDist::3                   790104      2.06%     62.42% # Number of instructions fetched each cycle (Total)
system.cpu.fetch.rateDist::4                   515027      1.34%     63.76% # Number of instructions fetched each cycle (Total)
system.cpu.fetch.rateDist::5                  1202895      3.13%     66.89% # Number of instructions fetched each cycle (Total)
system.cpu.fetch.rateDist::6                   450317      1.17%     68.06% # Number of instructions fetched each cycle (Total)
system.cpu.fetch.rateDist::7                   865221      2.25%     70.31% # Number of instructions fetched each cycle (Total)
system.cpu.fetch.rateDist::8                 11411506     29.69%    100.00% # Number of instructions fetched each cycle (Total)
system.cpu.fetch.rateDist::overflows                0      0.00%    100.00% # Number of instructions fetched each cycle (Total)
system.cpu.fetch.rateDist::min_value                0                       # Number of instructions fetched each cycle (Total)
system.cpu.fetch.rateDist::max_value                8                       # Number of instructions fetched each cycle (Total)
system.cpu.fetch.rateDist::total             38437349                       # Number of instructions fetched each cycle (Total)
system.cpu.fp_regfile_reads                  12477534                       # number of floating regfile reads
system.cpu.fp_regfile_writes                 13570150                       # number of floating regfile writes
system.cpu.idleCycles                          100072                       # Total number of cycles that the CPU has spent unscheduled due to idling
system.cpu.iew.branchMispredicts               485933                       # Number of branch mispredicts detected at execute
system.cpu.iew.exec_branches                  6653802                       # Number of branches executed
system.cpu.iew.exec_nop                             0                       # number of nop insts executed
system.cpu.iew.exec_rate                     2.693608                       # Inst execution rate
system.cpu.iew.exec_refs                     39033995                       # number of memory reference insts executed
system.cpu.iew.exec_stores                    9278364                       # Number of stores executed
system.cpu.iew.exec_swp                             0                       # number of swp insts executed
system.cpu.iew.iewBlockCycles                 1357133                       # Number of cycles IEW is blocking
system.cpu.iew.iewDispLoadInsts              30312624                       # Number of dispatched load instructions
system.cpu.iew.iewDispNonSpecInsts              22854                       # Number of dispatched non-speculative instructions
system.cpu.iew.iewDispSquashedInsts             18312                       # Number of squashed instructions skipped by dispatch
system.cpu.iew.iewDispStoreInsts              9736682                       # Number of dispatched store instructions
system.cpu.iew.iewDispatchedInsts           109128672                       # Number of instructions dispatched to IQ
system.cpu.iew.iewExecLoadInsts              29755631                       # Number of load instructions executed
system.cpu.iew.iewExecSquashedInsts            885746                       # Number of squashed instructions skipped in execute
system.cpu.iew.iewExecutedInsts             103804724                       # Number of executed instructions
system.cpu.iew.iewIQFullEvents                   2224                       # Number of times the IQ has become full, causing a stall
system.cpu.iew.iewIdleCycles                        0                       # Number of cycles IEW is idle
system.cpu.iew.iewLSQFullEvents                 33435                       # Number of times the LSQ has become full, causing a stall
system.cpu.iew.iewSquashCycles                 396840                       # Number of cycles IEW is squashing
system.cpu.iew.iewUnblockCycles                 36487                       # Number of cycles IEW is unblocking
system.cpu.iew.lsq.thread0.blockedLoads             0                       # Number of blocked loads due to partial load-store forwarding
system.cpu.iew.lsq.thread0.cacheBlocked          2317                       # Number of times an access to memory failed due to the cache being blocked
system.cpu.iew.lsq.thread0.forwLoads         12488827                       # Number of loads that had data forwarded from stores
system.cpu.iew.lsq.thread0.ignoredResponses        10883                       # Number of memory responses ignored because the instruction is squashed
system.cpu.iew.lsq.thread0.invAddrLoads             0                       # Number of loads ignored due to an invalid address
system.cpu.iew.lsq.thread0.invAddrSwpfs             0                       # Number of software prefetches ignored due to an invalid address
system.cpu.iew.lsq.thread0.memOrderViolation         5836                       # Number of memory ordering violations
system.cpu.iew.lsq.thread0.rescheduledLoads          753                       # Number of loads that were rescheduled
system.cpu.iew.lsq.thread0.squashedLoads      1271275                       # Number of loads squashed
system.cpu.iew.lsq.thread0.squashedStores       690801                       # Number of stores squashed
system.cpu.iew.memOrderViolationEvents           5836                       # Number of memory order violations
system.cpu.iew.predictedNotTakenIncorrect       401374                       # Number of branches that were predicted not taken incorrectly
system.cpu.iew.predictedTakenIncorrect          84559                       # Number of branches that were predicted taken incorrectly
system.cpu.iew.wb_consumers                 105474823                       # num instructions consuming a value
system.cpu.iew.wb_count                     103520214                       # cumulative count of insts written-back
system.cpu.iew.wb_fanout                     0.726327                       # average fanout of values written-back
system.cpu.iew.wb_producers                  76609195                       # num instructions producing a value
system.cpu.iew.wb_rate                       2.686226                       # insts written-back per cycle
system.cpu.iew.wb_sent                      103628248                       # cumulative count of insts sent to commit
system.cpu.int_regfile_reads                157513116                       # number of integer regfile reads
system.cpu.int_regfile_writes                74986837                       # number of integer regfile writes
system.cpu.ipc                               1.505840                       # IPC: Instructions Per Cycle
system.cpu.ipc_total                         1.505840                       # IPC: Total IPC of All Threads
system.cpu.iq.FU_type_0::No_OpClass            561049      0.54%      0.54% # Type of FU issued
system.cpu.iq.FU_type_0::IntAlu              55599442     53.11%     53.64% # Type of FU issued
system.cpu.iq.FU_type_0::IntMult                41473      0.04%     53.68% # Type of FU issued
system.cpu.iq.FU_type_0::IntDiv                588949      0.56%     54.25% # Type of FU issued
system.cpu.iq.FU_type_0::FloatAdd             4914336      4.69%     58.94% # Type of FU issued
system.cpu.iq.FU_type_0::FloatCmp                   0      0.00%     58.94% # Type of FU issued
system.cpu.iq.FU_type_0::FloatCvt                2708      0.00%     58.94% # Type of FU issued
system.cpu.iq.FU_type_0::FloatMult                  0      0.00%     58.94% # Type of FU issued
system.cpu.iq.FU_type_0::FloatMultAcc               0      0.00%     58.94% # Type of FU issued
system.cpu.iq.FU_type_0::FloatDiv                   0      0.00%     58.94% # Type of FU issued
system.cpu.iq.FU_type_0::FloatMisc                  0      0.00%     58.94% # Type of FU issued
system.cpu.iq.FU_type_0::FloatSqrt                  0      0.00%     58.94% # Type of FU issued
system.cpu.iq.FU_type_0::SimdAdd                    0      0.00%     58.94% # Type of FU issued
system.cpu.iq.FU_type_0::SimdAddAcc                 0      0.00%     58.94% # Type of FU issued
system.cpu.iq.FU_type_0::SimdAlu                59953      0.06%     59.00% # Type of FU issued
system.cpu.iq.FU_type_0::SimdCmp                    0      0.00%     59.00% # Type of FU issued
system.cpu.iq.FU_type_0::SimdCvt                79182      0.08%     59.08% # Type of FU issued
system.cpu.iq.FU_type_0::SimdMisc              216676      0.21%     59.28% # Type of FU issued
system.cpu.iq.FU_type_0::SimdMult                   0      0.00%     59.28% # Type of FU issued
system.cpu.iq.FU_type_0::SimdMultAcc                0      0.00%     59.28% # Type of FU issued
system.cpu.iq.FU_type_0::SimdShift                  0      0.00%     59.28% # Type of FU issued
system.cpu.iq.FU_type_0::SimdShiftAcc               0      0.00%     59.28% # Type of FU issued
system.cpu.iq.FU_type_0::SimdDiv                    0      0.00%     59.28% # Type of FU issued
system.cpu.iq.FU_type_0::SimdSqrt                   0      0.00%     59.28% # Type of FU issued
system.cpu.iq.FU_type_0::SimdFloatAdd         1642322      1.57%     60.85% # Type of FU issued
system.cpu.iq.FU_type_0::SimdFloatAlu               0      0.00%     60.85% # Type of FU issued
system.cpu.iq.FU_type_0::SimdFloatCmp               0      0.00%     60.85% # Type of FU issued
system.cpu.iq.FU_type_0::SimdFloatCvt           23402      0.02%     60.87% # Type of FU issued
system.cpu.iq.FU_type_0::SimdFloatDiv           19208      0.02%     60.89% # Type of FU issued
system.cpu.iq.FU_type_0::SimdFloatMisc              0      0.00%     60.89% # Type of FU issued
system.cpu.iq.FU_type_0::SimdFloatMult        1646194      1.57%     62.46% # Type of FU issued
system.cpu.iq.FU_type_0::SimdFloatMultAcc            0      0.00%     62.46% # Type of FU issued
system.cpu.iq.FU_type_0::SimdFloatSqrt              0      0.00%     62.46% # Type of FU issued
system.cpu.iq.FU_type_0::SimdReduceAdd              0      0.00%     62.46% # Type of FU issued
system.cpu.iq.FU_type_0::SimdReduceAlu              0      0.00%     62.46% # Type of FU issued
system.cpu.iq.FU_type_0::SimdReduceCmp              0      0.00%     62.46% # Type of FU issued
system.cpu.iq.FU_type_0::SimdFloatReduceAdd            0      0.00%     62.46% # Type of FU issued
system.cpu.iq.FU_type_0::SimdFloatReduceCmp            0      0.00%     62.46% # Type of FU issued
system.cpu.iq.FU_type_0::SimdAes                    0      0.00%     62.46% # Type of FU issued
system.cpu.iq.FU_type_0::SimdAesMix                 0      0.00%     62.46% # Type of FU issued
system.cpu.iq.FU_type_0::SimdSha1Hash               0      0.00%     62.46% # Type of FU issued
system.cpu.iq.FU_type_0::SimdSha1Hash2              0      0.00%     62.46% # Type of FU issued
system.cpu.iq.FU_type_0::SimdSha256Hash             0      0.00%     62.46% # Type of FU issued
system.cpu.iq.FU_type_0::SimdSha256Hash2            0      0.00%     62.46% # Type of FU issued
system.cpu.iq.FU_type_0::SimdShaSigma2              0      0.00%     62.46% # Type of FU issued
system.cpu.iq.FU_type_0::SimdShaSigma3              0      0.00%     62.46% # Type of FU issued
system.cpu.iq.FU_type_0::SimdPredAlu                0      0.00%     62.46% # Type of FU issued
system.cpu.iq.FU_type_0::MemRead             24945158     23.83%     86.29% # Type of FU issued
system.cpu.iq.FU_type_0::MemWrite             7716494      7.37%     93.66% # Type of FU issued
system.cpu.iq.FU_type_0::FloatMemRead         4987128      4.76%     98.43% # Type of FU issued
system.cpu.iq.FU_type_0::FloatMemWrite        1646796      1.57%    100.00% # Type of FU issued
system.cpu.iq.FU_type_0::IprAccess                  0      0.00%    100.00% # Type of FU issued
system.cpu.iq.FU_type_0::InstPrefetch               0      0.00%    100.00% # Type of FU issued
system.cpu.iq.FU_type_0::total              104690470                       # Type of FU issued
system.cpu.iq.fp_alu_accesses                15333926                       # Number of floating point alu accesses
system.cpu.iq.fp_inst_queue_reads            30666096                       # Number of floating instruction queue reads
system.cpu.iq.fp_inst_queue_wakeup_accesses     15305536                       # Number of floating instruction queue wakeup accesses
system.cpu.iq.fp_inst_queue_writes           15537904                       # Number of floating instruction queue writes
system.cpu.iq.fu_busy_cnt                     1914786                       # FU busy when requested
system.cpu.iq.fu_busy_rate                   0.018290                       # FU busy rate (busy events/executed inst)
system.cpu.iq.fu_full::No_OpClass                   0      0.00%      0.00% # attempts to use FU when none available
system.cpu.iq.fu_full::IntAlu                  849651     44.37%     44.37% # attempts to use FU when none available
system.cpu.iq.fu_full::IntMult                      0      0.00%     44.37% # attempts to use FU when none available
system.cpu.iq.fu_full::IntDiv                       0      0.00%     44.37% # attempts to use FU when none available
system.cpu.iq.fu_full::FloatAdd                     0      0.00%     44.37% # attempts to use FU when none available
system.cpu.iq.fu_full::FloatCmp                     0      0.00%     44.37% # attempts to use FU when none available
system.cpu.iq.fu_full::FloatCvt                    19      0.00%     44.37% # attempts to use FU when none available
system.cpu.iq.fu_full::FloatMult                    0      0.00%     44.37% # attempts to use FU when none available
system.cpu.iq.fu_full::FloatMultAcc                 0      0.00%     44.37% # attempts to use FU when none available
system.cpu.iq.fu_full::FloatDiv                     0      0.00%     44.37% # attempts to use FU when none available
system.cpu.iq.fu_full::FloatMisc                    0      0.00%     44.37% # attempts to use FU when none available
system.cpu.iq.fu_full::FloatSqrt                    0      0.00%     44.37% # attempts to use FU when none available
system.cpu.iq.fu_full::SimdAdd                      0      0.00%     44.37% # attempts to use FU when none available
system.cpu.iq.fu_full::SimdAddAcc                   0      0.00%     44.37% # attempts to use FU when none available
system.cpu.iq.fu_full::SimdAlu                    138      0.01%     44.38% # attempts to use FU when none available
system.cpu.iq.fu_full::SimdCmp                      0      0.00%     44.38% # attempts to use FU when none available
system.cpu.iq.fu_full::SimdCvt                      0      0.00%     44.38% # attempts to use FU when none available
system.cpu.iq.fu_full::SimdMisc                    53      0.00%     44.38% # attempts to use FU when none available
system.cpu.iq.fu_full::SimdMult                     0      0.00%     44.38% # attempts to use FU when none available
system.cpu.iq.fu_full::SimdMultAcc                  0      0.00%     44.38% # attempts to use FU when none available
system.cpu.iq.fu_full::SimdShift                    0      0.00%     44.38% # attempts to use FU when none available
system.cpu.iq.fu_full::SimdShiftAcc                 0      0.00%     44.38% # attempts to use FU when none available
system.cpu.iq.fu_full::SimdDiv                      0      0.00%     44.38% # attempts to use FU when none available
system.cpu.iq.fu_full::SimdSqrt                     0      0.00%     44.38% # attempts to use FU when none available
system.cpu.iq.fu_full::SimdFloatAdd                 0      0.00%     44.38% # attempts to use FU when none available
system.cpu.iq.fu_full::SimdFloatAlu                 0      0.00%     44.38% # attempts to use FU when none available
system.cpu.iq.fu_full::SimdFloatCmp                 0      0.00%     44.38% # attempts to use FU when none available
system.cpu.iq.fu_full::SimdFloatCvt                 0      0.00%     44.38% # attempts to use FU when none available
system.cpu.iq.fu_full::SimdFloatDiv                 0      0.00%     44.38% # attempts to use FU when none available
system.cpu.iq.fu_full::SimdFloatMisc                0      0.00%     44.38% # attempts to use FU when none available
system.cpu.iq.fu_full::SimdFloatMult                0      0.00%     44.38% # attempts to use FU when none available
system.cpu.iq.fu_full::SimdFloatMultAcc             0      0.00%     44.38% # attempts to use FU when none available
system.cpu.iq.fu_full::SimdFloatSqrt                0      0.00%     44.38% # attempts to use FU when none available
system.cpu.iq.fu_full::SimdReduceAdd                0      0.00%     44.38% # attempts to use FU when none available
system.cpu.iq.fu_full::SimdReduceAlu                0      0.00%     44.38% # attempts to use FU when none available
system.cpu.iq.fu_full::SimdReduceCmp                0      0.00%     44.38% # attempts to use FU when none available
system.cpu.iq.fu_full::SimdFloatReduceAdd            0      0.00%     44.38% # attempts to use FU when none available
system.cpu.iq.fu_full::SimdFloatReduceCmp            0      0.00%     44.38% # attempts to use FU when none available
system.cpu.iq.fu_full::SimdAes                      0      0.00%     44.38% # attempts to use FU when none available
system.cpu.iq.fu_full::SimdAesMix                   0      0.00%     44.38% # attempts to use FU when none available
system.cpu.iq.fu_full::SimdSha1Hash                 0      0.00%     44.38% # attempts to use FU when none available
system.cpu.iq.fu_full::SimdSha1Hash2                0      0.00%     44.38% # attempts to use FU when none available
system.cpu.iq.fu_full::SimdSha256Hash               0      0.00%     44.38% # attempts to use FU when none available
system.cpu.iq.fu_full::SimdSha256Hash2              0      0.00%     44.38% # attempts to use FU when none available
system.cpu.iq.fu_full::SimdShaSigma2                0      0.00%     44.38% # attempts to use FU when none available
system.cpu.iq.fu_full::SimdShaSigma3                0      0.00%     44.38% # attempts to use FU when none available
system.cpu.iq.fu_full::SimdPredAlu                  0      0.00%     44.38% # attempts to use FU when none available
system.cpu.iq.fu_full::MemRead                1048725     54.77%     99.15% # attempts to use FU when none available
system.cpu.iq.fu_full::MemWrite                 14279      0.75%     99.90% # attempts to use FU when none available
system.cpu.iq.fu_full::FloatMemRead              1083      0.06%     99.96% # attempts to use FU when none available
system.cpu.iq.fu_full::FloatMemWrite              838      0.04%    100.00% # attempts to use FU when none available
system.cpu.iq.fu_full::IprAccess                    0      0.00%    100.00% # attempts to use FU when none available
system.cpu.iq.fu_full::InstPrefetch                 0      0.00%    100.00% # attempts to use FU when none available
system.cpu.iq.int_alu_accesses               90710281                       # Number of integer alu accesses
system.cpu.iq.int_inst_queue_reads          219190349                       # Number of integer instruction queue reads
system.cpu.iq.int_inst_queue_wakeup_accesses     88214678                       # Number of integer instruction queue wakeup accesses
system.cpu.iq.int_inst_queue_writes         105291965                       # Number of integer instruction queue writes
system.cpu.iq.iqInstsAdded                  109061218                       # Number of instructions added to the IQ (excludes non-spec)
system.cpu.iq.iqInstsIssued                 104690470                       # Number of instructions issued
system.cpu.iq.iqNonSpecInstsAdded               67454                       # Number of non-speculative instructions added to the IQ
system.cpu.iq.iqSquashedInstsExamined        11695617                       # Number of squashed instructions iterated over during squash; mainly for profiling
system.cpu.iq.iqSquashedInstsIssued            123370                       # Number of squashed instructions issued
system.cpu.iq.iqSquashedNonSpecRemoved          67112                       # Number of squashed non-spec instructions that were removed
system.cpu.iq.iqSquashedOperandsExamined     19221513                       # Number of squashed operands that are examined and possibly removed from graph
system.cpu.iq.issued_per_cycle::samples      38437349                       # Number of insts issued each cycle
system.cpu.iq.issued_per_cycle::mean         2.723665                       # Number of insts issued each cycle
system.cpu.iq.issued_per_cycle::stdev        2.280310                       # Number of insts issued each cycle
system.cpu.iq.issued_per_cycle::underflows            0      0.00%      0.00% # Number of insts issued each cycle
system.cpu.iq.issued_per_cycle::0             9393690     24.44%     24.44% # Number of insts issued each cycle
system.cpu.iq.issued_per_cycle::1             4792131     12.47%     36.91% # Number of insts issued each cycle
system.cpu.iq.issued_per_cycle::2             5304067     13.80%     50.71% # Number of insts issued each cycle
system.cpu.iq.issued_per_cycle::3             4607683     11.99%     62.69% # Number of insts issued each cycle
system.cpu.iq.issued_per_cycle::4             4740063     12.33%     75.03% # Number of insts issued each cycle
system.cpu.iq.issued_per_cycle::5             4312461     11.22%     86.24% # Number of insts issued each cycle
system.cpu.iq.issued_per_cycle::6             2897961      7.54%     93.78% # Number of insts issued each cycle
system.cpu.iq.issued_per_cycle::7             1557511      4.05%     97.84% # Number of insts issued each cycle
system.cpu.iq.issued_per_cycle::8              831782      2.16%    100.00% # Number of insts issued each cycle
system.cpu.iq.issued_per_cycle::overflows            0      0.00%    100.00% # Number of insts issued each cycle
system.cpu.iq.issued_per_cycle::min_value            0                       # Number of insts issued each cycle
system.cpu.iq.issued_per_cycle::max_value            8                       # Number of insts issued each cycle
system.cpu.iq.issued_per_cycle::total        38437349                       # Number of insts issued each cycle
system.cpu.iq.rate                           2.716593                       # Inst issue rate
system.cpu.iq.vec_alu_accesses                      0                       # Number of vector alu accesses
system.cpu.iq.vec_inst_queue_reads                  0                       # Number of vector instruction queue reads
system.cpu.iq.vec_inst_queue_wakeup_accesses            0                       # Number of vector instruction queue wakeup accesses
system.cpu.iq.vec_inst_queue_writes                 0                       # Number of vector instruction queue writes
system.cpu.itb.rdAccesses                           0                       # TLB accesses on read requests
system.cpu.itb.rdMisses                             0                       # TLB misses on read requests
system.cpu.itb.wrAccesses                     7577605                       # TLB accesses on write requests
system.cpu.itb.wrMisses                           269                       # TLB misses on write requests
system.cpu.memDep0.conflictingLoads          11573171                       # Number of conflicting loads.
system.cpu.memDep0.conflictingStores          5401398                       # Number of conflicting stores.
system.cpu.memDep0.insertedLoads             30312624                       # Number of loads inserted to the mem dependence unit.
system.cpu.memDep0.insertedStores             9736682                       # Number of stores inserted to the mem dependence unit.
system.cpu.misc_regfile_reads                52320293                       # number of misc regfile reads
system.cpu.misc_regfile_writes                    143                       # number of misc regfile writes
system.cpu.numCycles                         38537421                       # number of cpu cycles simulated
system.cpu.numWorkItemsCompleted                    0                       # number of work items this cpu completed
system.cpu.numWorkItemsStarted                      0                       # number of work items this cpu started
system.cpu.rename.BlockCycles                 1430494                       # Number of cycles rename is blocking
system.cpu.rename.CommittedMaps             109139378                       # Number of HB maps that are committed
system.cpu.rename.IQFullEvents                 343380                       # Number of times rename has blocked due to IQ full
system.cpu.rename.IdleCycles                 10360001                       # Number of cycles rename is idle
system.cpu.rename.LQFullEvents                9231432                       # Number of times rename has blocked due to LQ full
system.cpu.rename.ROBFullEvents                  5253                       # Number of times rename has blocked due to ROB full
system.cpu.rename.RenameLookups             286032903                       # Number of register rename lookups that rename has made
system.cpu.rename.RenamedInsts              112533633                       # Number of instructions processed by rename
system.cpu.rename.RenamedOperands           127149852                       # Number of destination operands rename has renamed
system.cpu.rename.RunCycles                  14477605                       # Number of cycles rename is running
system.cpu.rename.SQFullEvents                1293919                       # Number of times rename has blocked due to SQ full
system.cpu.rename.SquashCycles                 396840                       # Number of cycles rename is squashing
system.cpu.rename.UnblockCycles              11761834                       # Number of cycles rename is unblocking
system.cpu.rename.UndoneMaps                 18010474                       # Number of HB maps that are undone due to squashing
system.cpu.rename.fp_rename_lookups          12617710                       # Number of floating rename lookups
system.cpu.rename.int_rename_lookups        174001373                       # Number of integer rename lookups
system.cpu.rename.serializeStallCycles          10575                       # count of cycles rename stalled for serializing inst
system.cpu.rename.serializingInsts                762                       # count of serializing insts renamed
system.cpu.rename.skidInsts                  18303157                       # count of insts added to the skid buffer
system.cpu.rename.tempSerializingInsts            832                       # count of temporary serializing insts renamed
system.cpu.rob.rob_reads                    138823385                       # The number of ROB reads
system.cpu.rob.rob_writes                   219997070                       # The number of ROB writes
system.cpu.timesIdled                           32791                       # Number of times that the entire CPU went into an idle state and unscheduled itself
system.cpu.workload.numSyscalls                   203                       # Number of system calls
system.membus.snoop_filter.hit_multi_requests            0                       # Number of requests hitting in the snoop filter with multiple (>1) holders of the requested data.
system.membus.snoop_filter.hit_multi_snoops            0                       # Number of snoops hitting in the snoop filter with multiple (>1) holders of the requested data.
system.membus.snoop_filter.hit_single_requests            0                       # Number of requests hitting in the snoop filter with a single holder of the requested data.
system.membus.snoop_filter.hit_single_snoops            0                       # Number of snoops hitting in the snoop filter with a single holder of the requested data.
system.membus.snoop_filter.tot_requests         16959                       # Total number of requests made to the snoop filter.
system.membus.snoop_filter.tot_snoops               0                       # Total number of snoops made to the snoop filter.
system.tol2bus.snoop_filter.hit_multi_requests          124                       # Number of requests hitting in the snoop filter with multiple (>1) holders of the requested data.
system.tol2bus.snoop_filter.hit_multi_snoops            0                       # Number of snoops hitting in the snoop filter with multiple (>1) holders of the requested data.
system.tol2bus.snoop_filter.hit_single_requests       413307                       # Number of requests hitting in the snoop filter with a single holder of the requested data.
system.tol2bus.snoop_filter.hit_single_snoops            0                       # Number of snoops hitting in the snoop filter with a single holder of the requested data.
system.tol2bus.snoop_filter.tot_requests       828607                       # Total number of requests made to the snoop filter.
system.tol2bus.snoop_filter.tot_snoops              0                       # Total number of snoops made to the snoop filter.
system.membus.pwrStateResidencyTicks::UNDEFINED  38537420000                       # Cumulative time (in ticks) in various power states
system.membus.trans_dist::ReadResp               6063                       # Transaction distribution
system.membus.trans_dist::ReadExReq             10896                       # Transaction distribution
system.membus.trans_dist::ReadExResp            10896                       # Transaction distribution
system.membus.trans_dist::ReadSharedReq          6063                       # Transaction distribution
system.membus.pkt_count_system.l2.mem_side::system.mem_ctrls.port        33918                       # Packet count per connected master and slave (bytes)
system.membus.pkt_count_system.l2.mem_side::total        33918                       # Packet count per connected master and slave (bytes)
system.membus.pkt_count::total                  33918                       # Packet count per connected master and slave (bytes)
system.membus.pkt_size_system.l2.mem_side::system.mem_ctrls.port      1085376                       # Cumulative packet size per connected master and slave (bytes)
system.membus.pkt_size_system.l2.mem_side::total      1085376                       # Cumulative packet size per connected master and slave (bytes)
system.membus.pkt_size::total                 1085376                       # Cumulative packet size per connected master and slave (bytes)
system.membus.snoops                                0                       # Total snoops (count)
system.membus.snoopTraffic                          0                       # Total snoop traffic (bytes)
system.membus.snoop_fanout::samples             16959                       # Request fanout histogram
system.membus.snoop_fanout::mean                    0                       # Request fanout histogram
system.membus.snoop_fanout::stdev                   0                       # Request fanout histogram
system.membus.snoop_fanout::underflows              0      0.00%      0.00% # Request fanout histogram
system.membus.snoop_fanout::0                   16959    100.00%    100.00% # Request fanout histogram
system.membus.snoop_fanout::1                       0      0.00%    100.00% # Request fanout histogram
system.membus.snoop_fanout::overflows               0      0.00%    100.00% # Request fanout histogram
system.membus.snoop_fanout::min_value               0                       # Request fanout histogram
system.membus.snoop_fanout::max_value               0                       # Request fanout histogram
system.membus.snoop_fanout::total               16959                       # Request fanout histogram
system.membus.reqLayer2.occupancy            16959000                       # Layer occupancy (ticks)
system.membus.reqLayer2.utilization               0.0                       # Layer utilization (%)
system.membus.respLayer1.occupancy           89398000                       # Layer occupancy (ticks)
system.membus.respLayer1.utilization              0.2                       # Layer utilization (%)
system.tol2bus.pwrStateResidencyTicks::UNDEFINED  38537420000                       # Cumulative time (in ticks) in various power states
system.tol2bus.trans_dist::ReadResp            386731                       # Transaction distribution
system.tol2bus.trans_dist::WritebackDirty       243158                       # Transaction distribution
system.tol2bus.trans_dist::WritebackClean       156652                       # Transaction distribution
system.tol2bus.trans_dist::CleanEvict           13497                       # Transaction distribution
system.tol2bus.trans_dist::ReadExReq            28568                       # Transaction distribution
system.tol2bus.trans_dist::ReadExResp           28568                       # Transaction distribution
system.tol2bus.trans_dist::ReadCleanReq        157621                       # Transaction distribution
system.tol2bus.trans_dist::ReadSharedReq       229111                       # Transaction distribution
system.tol2bus.pkt_count_system.cpu.icache.mem_side::system.l2.cpu_side       471893                       # Packet count per connected master and slave (bytes)
system.tol2bus.pkt_count_system.cpu.dcache.mem_side::system.l2.cpu_side       772013                       # Packet count per connected master and slave (bytes)
system.tol2bus.pkt_count::total               1243906                       # Packet count per connected master and slave (bytes)
system.tol2bus.pkt_size_system.cpu.icache.mem_side::system.l2.cpu_side     20113408                       # Cumulative packet size per connected master and slave (bytes)
system.tol2bus.pkt_size_system.cpu.dcache.mem_side::system.l2.cpu_side     32053568                       # Cumulative packet size per connected master and slave (bytes)
system.tol2bus.pkt_size::total               52166976                       # Cumulative packet size per connected master and slave (bytes)
system.tol2bus.snoops                               0                       # Total snoops (count)
system.tol2bus.snoopTraffic                         0                       # Total snoop traffic (bytes)
system.tol2bus.snoop_fanout::samples           415300                       # Request fanout histogram
system.tol2bus.snoop_fanout::mean            0.000299                       # Request fanout histogram
system.tol2bus.snoop_fanout::stdev           0.017277                       # Request fanout histogram
system.tol2bus.snoop_fanout::underflows             0      0.00%      0.00% # Request fanout histogram
system.tol2bus.snoop_fanout::0                 415176     99.97%     99.97% # Request fanout histogram
system.tol2bus.snoop_fanout::1                    124      0.03%    100.00% # Request fanout histogram
system.tol2bus.snoop_fanout::2                      0      0.00%    100.00% # Request fanout histogram
system.tol2bus.snoop_fanout::3                      0      0.00%    100.00% # Request fanout histogram
system.tol2bus.snoop_fanout::4                      0      0.00%    100.00% # Request fanout histogram
system.tol2bus.snoop_fanout::overflows              0      0.00%    100.00% # Request fanout histogram
system.tol2bus.snoop_fanout::min_value              0                       # Request fanout histogram
system.tol2bus.snoop_fanout::max_value              1                       # Request fanout histogram
system.tol2bus.snoop_fanout::total             415300                       # Request fanout histogram
system.tol2bus.reqLayer0.occupancy         1628227000                       # Layer occupancy (ticks)
system.tol2bus.reqLayer0.utilization              4.2                       # Layer utilization (%)
system.tol2bus.respLayer1.occupancy         773038998                       # Layer occupancy (ticks)
system.tol2bus.respLayer1.utilization             2.0                       # Layer utilization (%)
system.tol2bus.respLayer0.occupancy         472865994                       # Layer occupancy (ticks)
system.tol2bus.respLayer0.utilization             1.2                       # Layer utilization (%)
system.voltage_domain.voltage                       1                       # Voltage in Volts
system.clk_domain.clock                          1000                       # Clock period in ticks
system.l2.pwrStateResidencyTicks::UNDEFINED  38537420000                       # Cumulative time (in ticks) in various power states
system.l2.demand_hits::.cpu.inst               155907                       # number of demand (read+write) hits
system.l2.demand_hits::.cpu.data               242432                       # number of demand (read+write) hits
system.l2.demand_hits::total                   398339                       # number of demand (read+write) hits
system.l2.overall_hits::.cpu.inst              155907                       # number of overall hits
system.l2.overall_hits::.cpu.data              242432                       # number of overall hits
system.l2.overall_hits::total                  398339                       # number of overall hits
system.l2.demand_misses::.cpu.inst               1714                       # number of demand (read+write) misses
system.l2.demand_misses::.cpu.data              15247                       # number of demand (read+write) misses
system.l2.demand_misses::total                  16961                       # number of demand (read+write) misses
system.l2.overall_misses::.cpu.inst              1714                       # number of overall misses
system.l2.overall_misses::.cpu.data             15247                       # number of overall misses
system.l2.overall_misses::total                 16961                       # number of overall misses
system.l2.demand_miss_latency::.cpu.inst    169454000                       # number of demand (read+write) miss cycles
system.l2.demand_miss_latency::.cpu.data   1463622000                       # number of demand (read+write) miss cycles
system.l2.demand_miss_latency::total       1633076000                       # number of demand (read+write) miss cycles
system.l2.overall_miss_latency::.cpu.inst    169454000                       # number of overall miss cycles
system.l2.overall_miss_latency::.cpu.data   1463622000                       # number of overall miss cycles
system.l2.overall_miss_latency::total      1633076000                       # number of overall miss cycles
system.l2.demand_accesses::.cpu.inst           157621                       # number of demand (read+write) accesses
system.l2.demand_accesses::.cpu.data           257679                       # number of demand (read+write) accesses
system.l2.demand_accesses::total               415300                       # number of demand (read+write) accesses
system.l2.overall_accesses::.cpu.inst          157621                       # number of overall (read+write) accesses
system.l2.overall_accesses::.cpu.data          257679                       # number of overall (read+write) accesses
system.l2.overall_accesses::total              415300                       # number of overall (read+write) accesses
system.l2.demand_miss_rate::.cpu.inst        0.010874                       # miss rate for demand accesses
system.l2.demand_miss_rate::.cpu.data        0.059171                       # miss rate for demand accesses
system.l2.demand_miss_rate::total            0.040840                       # miss rate for demand accesses
system.l2.overall_miss_rate::.cpu.inst       0.010874                       # miss rate for overall accesses
system.l2.overall_miss_rate::.cpu.data       0.059171                       # miss rate for overall accesses
system.l2.overall_miss_rate::total           0.040840                       # miss rate for overall accesses
system.l2.demand_avg_miss_latency::.cpu.inst 98864.644107                       # average overall miss latency
system.l2.demand_avg_miss_latency::.cpu.data 95994.097199                       # average overall miss latency
system.l2.demand_avg_miss_latency::total 96284.181357                       # average overall miss latency
system.l2.overall_avg_miss_latency::.cpu.inst 98864.644107                       # average overall miss latency
system.l2.overall_avg_miss_latency::.cpu.data 95994.097199                       # average overall miss latency
system.l2.overall_avg_miss_latency::total 96284.181357                       # average overall miss latency
system.l2.blocked_cycles::no_mshrs                  0                       # number of cycles access was blocked
system.l2.blocked_cycles::no_targets                0                       # number of cycles access was blocked
system.l2.blocked::no_mshrs                         0                       # number of cycles access was blocked
system.l2.blocked::no_targets                       0                       # number of cycles access was blocked
system.l2.avg_blocked_cycles::no_mshrs            nan                       # average number of cycles each access was blocked
system.l2.avg_blocked_cycles::no_targets          nan                       # average number of cycles each access was blocked
system.l2.demand_mshr_hits::.cpu.data               1                       # number of demand (read+write) MSHR hits
system.l2.demand_mshr_hits::total                   1                       # number of demand (read+write) MSHR hits
system.l2.overall_mshr_hits::.cpu.data              1                       # number of overall MSHR hits
system.l2.overall_mshr_hits::total                  1                       # number of overall MSHR hits
system.l2.demand_mshr_misses::.cpu.inst          1714                       # number of demand (read+write) MSHR misses
system.l2.demand_mshr_misses::.cpu.data         15246                       # number of demand (read+write) MSHR misses
system.l2.demand_mshr_misses::total             16960                       # number of demand (read+write) MSHR misses
system.l2.overall_mshr_misses::.cpu.inst         1714                       # number of overall MSHR misses
system.l2.overall_mshr_misses::.cpu.data        15246                       # number of overall MSHR misses
system.l2.overall_mshr_misses::total            16960                       # number of overall MSHR misses
system.l2.demand_mshr_miss_latency::.cpu.inst    135194000                       # number of demand (read+write) MSHR miss cycles
system.l2.demand_mshr_miss_latency::.cpu.data   1158630000                       # number of demand (read+write) MSHR miss cycles
system.l2.demand_mshr_miss_latency::total   1293824000                       # number of demand (read+write) MSHR miss cycles
system.l2.overall_mshr_miss_latency::.cpu.inst    135194000                       # number of overall MSHR miss cycles
system.l2.overall_mshr_miss_latency::.cpu.data   1158630000                       # number of overall MSHR miss cycles
system.l2.overall_mshr_miss_latency::total   1293824000                       # number of overall MSHR miss cycles
system.l2.demand_mshr_miss_rate::.cpu.inst     0.010874                       # mshr miss rate for demand accesses
system.l2.demand_mshr_miss_rate::.cpu.data     0.059167                       # mshr miss rate for demand accesses
system.l2.demand_mshr_miss_rate::total       0.040838                       # mshr miss rate for demand accesses
system.l2.overall_mshr_miss_rate::.cpu.inst     0.010874                       # mshr miss rate for overall accesses
system.l2.overall_mshr_miss_rate::.cpu.data     0.059167                       # mshr miss rate for overall accesses
system.l2.overall_mshr_miss_rate::total      0.040838                       # mshr miss rate for overall accesses
system.l2.demand_avg_mshr_miss_latency::.cpu.inst 78876.312719                       # average overall mshr miss latency
system.l2.demand_avg_mshr_miss_latency::.cpu.data 75995.670996                       # average overall mshr miss latency
system.l2.demand_avg_mshr_miss_latency::total 76286.792453                       # average overall mshr miss latency
system.l2.overall_avg_mshr_miss_latency::.cpu.inst 78876.312719                       # average overall mshr miss latency
system.l2.overall_avg_mshr_miss_latency::.cpu.data 75995.670996                       # average overall mshr miss latency
system.l2.overall_avg_mshr_miss_latency::total 76286.792453                       # average overall mshr miss latency
system.l2.replacements                              0                       # number of replacements
system.l2.WritebackDirty_hits::.writebacks       243158                       # number of WritebackDirty hits
system.l2.WritebackDirty_hits::total           243158                       # number of WritebackDirty hits
system.l2.WritebackDirty_accesses::.writebacks       243158                       # number of WritebackDirty accesses(hits+misses)
system.l2.WritebackDirty_accesses::total       243158                       # number of WritebackDirty accesses(hits+misses)
system.l2.WritebackClean_hits::.writebacks       156652                       # number of WritebackClean hits
system.l2.WritebackClean_hits::total           156652                       # number of WritebackClean hits
system.l2.WritebackClean_accesses::.writebacks       156652                       # number of WritebackClean accesses(hits+misses)
system.l2.WritebackClean_accesses::total       156652                       # number of WritebackClean accesses(hits+misses)
system.l2.ReadExReq_hits::.cpu.data             17672                       # number of ReadExReq hits
system.l2.ReadExReq_hits::total                 17672                       # number of ReadExReq hits
system.l2.ReadExReq_misses::.cpu.data           10896                       # number of ReadExReq misses
system.l2.ReadExReq_misses::total               10896                       # number of ReadExReq misses
system.l2.ReadExReq_miss_latency::.cpu.data   1032635000                       # number of ReadExReq miss cycles
system.l2.ReadExReq_miss_latency::total    1032635000                       # number of ReadExReq miss cycles
system.l2.ReadExReq_accesses::.cpu.data         28568                       # number of ReadExReq accesses(hits+misses)
system.l2.ReadExReq_accesses::total             28568                       # number of ReadExReq accesses(hits+misses)
system.l2.ReadExReq_miss_rate::.cpu.data     0.381406                       # miss rate for ReadExReq accesses
system.l2.ReadExReq_miss_rate::total         0.381406                       # miss rate for ReadExReq accesses
system.l2.ReadExReq_avg_miss_latency::.cpu.data 94771.934655                       # average ReadExReq miss latency
system.l2.ReadExReq_avg_miss_latency::total 94771.934655                       # average ReadExReq miss latency
system.l2.ReadExReq_mshr_misses::.cpu.data        10896                       # number of ReadExReq MSHR misses
system.l2.ReadExReq_mshr_misses::total          10896                       # number of ReadExReq MSHR misses
system.l2.ReadExReq_mshr_miss_latency::.cpu.data    814715000                       # number of ReadExReq MSHR miss cycles
system.l2.ReadExReq_mshr_miss_latency::total    814715000                       # number of ReadExReq MSHR miss cycles
system.l2.ReadExReq_mshr_miss_rate::.cpu.data     0.381406                       # mshr miss rate for ReadExReq accesses
system.l2.ReadExReq_mshr_miss_rate::total     0.381406                       # mshr miss rate for ReadExReq accesses
system.l2.ReadExReq_avg_mshr_miss_latency::.cpu.data 74771.934655                       # average ReadExReq mshr miss latency
system.l2.ReadExReq_avg_mshr_miss_latency::total 74771.934655                       # average ReadExReq mshr miss latency
system.l2.ReadCleanReq_hits::.cpu.inst         155907                       # number of ReadCleanReq hits
system.l2.ReadCleanReq_hits::total             155907                       # number of ReadCleanReq hits
system.l2.ReadCleanReq_misses::.cpu.inst         1714                       # number of ReadCleanReq misses
system.l2.ReadCleanReq_misses::total             1714                       # number of ReadCleanReq misses
system.l2.ReadCleanReq_miss_latency::.cpu.inst    169454000                       # number of ReadCleanReq miss cycles
system.l2.ReadCleanReq_miss_latency::total    169454000                       # number of ReadCleanReq miss cycles
system.l2.ReadCleanReq_accesses::.cpu.inst       157621                       # number of ReadCleanReq accesses(hits+misses)
system.l2.ReadCleanReq_accesses::total         157621                       # number of ReadCleanReq accesses(hits+misses)
system.l2.ReadCleanReq_miss_rate::.cpu.inst     0.010874                       # miss rate for ReadCleanReq accesses
system.l2.ReadCleanReq_miss_rate::total      0.010874                       # miss rate for ReadCleanReq accesses
system.l2.ReadCleanReq_avg_miss_latency::.cpu.inst 98864.644107                       # average ReadCleanReq miss latency
system.l2.ReadCleanReq_avg_miss_latency::total 98864.644107                       # average ReadCleanReq miss latency
system.l2.ReadCleanReq_mshr_misses::.cpu.inst         1714                       # number of ReadCleanReq MSHR misses
system.l2.ReadCleanReq_mshr_misses::total         1714                       # number of ReadCleanReq MSHR misses
system.l2.ReadCleanReq_mshr_miss_latency::.cpu.inst    135194000                       # number of ReadCleanReq MSHR miss cycles
system.l2.ReadCleanReq_mshr_miss_latency::total    135194000                       # number of ReadCleanReq MSHR miss cycles
system.l2.ReadCleanReq_mshr_miss_rate::.cpu.inst     0.010874                       # mshr miss rate for ReadCleanReq accesses
system.l2.ReadCleanReq_mshr_miss_rate::total     0.010874                       # mshr miss rate for ReadCleanReq accesses
system.l2.ReadCleanReq_avg_mshr_miss_latency::.cpu.inst 78876.312719                       # average ReadCleanReq mshr miss latency
system.l2.ReadCleanReq_avg_mshr_miss_latency::total 78876.312719                       # average ReadCleanReq mshr miss latency
system.l2.ReadSharedReq_hits::.cpu.data        224760                       # number of ReadSharedReq hits
system.l2.ReadSharedReq_hits::total            224760                       # number of ReadSharedReq hits
system.l2.ReadSharedReq_misses::.cpu.data         4351                       # number of ReadSharedReq misses
system.l2.ReadSharedReq_misses::total            4351                       # number of ReadSharedReq misses
system.l2.ReadSharedReq_miss_latency::.cpu.data    430987000                       # number of ReadSharedReq miss cycles
system.l2.ReadSharedReq_miss_latency::total    430987000                       # number of ReadSharedReq miss cycles
system.l2.ReadSharedReq_accesses::.cpu.data       229111                       # number of ReadSharedReq accesses(hits+misses)
system.l2.ReadSharedReq_accesses::total        229111                       # number of ReadSharedReq accesses(hits+misses)
system.l2.ReadSharedReq_miss_rate::.cpu.data     0.018991                       # miss rate for ReadSharedReq accesses
system.l2.ReadSharedReq_miss_rate::total     0.018991                       # miss rate for ReadSharedReq accesses
system.l2.ReadSharedReq_avg_miss_latency::.cpu.data 99054.700069                       # average ReadSharedReq miss latency
system.l2.ReadSharedReq_avg_miss_latency::total 99054.700069                       # average ReadSharedReq miss latency
system.l2.ReadSharedReq_mshr_hits::.cpu.data            1                       # number of ReadSharedReq MSHR hits
system.l2.ReadSharedReq_mshr_hits::total            1                       # number of ReadSharedReq MSHR hits
system.l2.ReadSharedReq_mshr_misses::.cpu.data         4350                       # number of ReadSharedReq MSHR misses
system.l2.ReadSharedReq_mshr_misses::total         4350                       # number of ReadSharedReq MSHR misses
system.l2.ReadSharedReq_mshr_miss_latency::.cpu.data    343915000                       # number of ReadSharedReq MSHR miss cycles
system.l2.ReadSharedReq_mshr_miss_latency::total    343915000                       # number of ReadSharedReq MSHR miss cycles
system.l2.ReadSharedReq_mshr_miss_rate::.cpu.data     0.018986                       # mshr miss rate for ReadSharedReq accesses
system.l2.ReadSharedReq_mshr_miss_rate::total     0.018986                       # mshr miss rate for ReadSharedReq accesses
system.l2.ReadSharedReq_avg_mshr_miss_latency::.cpu.data 79060.919540                       # average ReadSharedReq mshr miss latency
system.l2.ReadSharedReq_avg_mshr_miss_latency::total 79060.919540                       # average ReadSharedReq mshr miss latency
system.l2.tags.pwrStateResidencyTicks::UNDEFINED  38537420000                       # Cumulative time (in ticks) in various power states
system.l2.tags.tagsinuse                 10435.408757                       # Cycle average of tags in use
system.l2.tags.total_refs                      828481                       # Total number of references to valid blocks.
system.l2.tags.sampled_refs                     16959                       # Sample count of references to valid blocks.
system.l2.tags.avg_refs                     48.851996                       # Average number of references to valid blocks.
system.l2.tags.warmup_cycle                     86000                       # Cycle when the warmup percentage was hit.
system.l2.tags.occ_blocks::.cpu.inst      1440.987286                       # Average occupied blocks per requestor
system.l2.tags.occ_blocks::.cpu.data      8994.421471                       # Average occupied blocks per requestor
system.l2.tags.occ_percent::.cpu.inst        0.043975                       # Average percentage of cache occupancy
system.l2.tags.occ_percent::.cpu.data        0.274488                       # Average percentage of cache occupancy
system.l2.tags.occ_percent::total            0.318463                       # Average percentage of cache occupancy
system.l2.tags.occ_task_id_blocks::1024         16959                       # Occupied blocks per task id
system.l2.tags.age_task_id_blocks_1024::0           73                       # Occupied blocks per task id
system.l2.tags.age_task_id_blocks_1024::1            6                       # Occupied blocks per task id
system.l2.tags.age_task_id_blocks_1024::2          393                       # Occupied blocks per task id
system.l2.tags.age_task_id_blocks_1024::3         3934                       # Occupied blocks per task id
system.l2.tags.age_task_id_blocks_1024::4        12553                       # Occupied blocks per task id
system.l2.tags.occ_task_id_percent::1024     0.517548                       # Percentage of cache occupancy per task id
system.l2.tags.tag_accesses                   6644823                       # Number of tag accesses
system.l2.tags.data_accesses                  6644823                       # Number of data accesses
system.cpu_voltage_domain.voltage                   1                       # Voltage in Volts
system.mem_ctrls.pwrStateResidencyTicks::UNDEFINED  38537420000                       # Cumulative time (in ticks) in various power states
system.mem_ctrls.bytes_read::.cpu.inst         109632                       # Number of bytes read from this memory
system.mem_ctrls.bytes_read::.cpu.data         975744                       # Number of bytes read from this memory
system.mem_ctrls.bytes_read::total            1085376                       # Number of bytes read from this memory
system.mem_ctrls.bytes_inst_read::.cpu.inst       109632                       # Number of instructions bytes read from this memory
system.mem_ctrls.bytes_inst_read::total        109632                       # Number of instructions bytes read from this memory
system.mem_ctrls.num_reads::.cpu.inst            1713                       # Number of read requests responded to by this memory
system.mem_ctrls.num_reads::.cpu.data           15246                       # Number of read requests responded to by this memory
system.mem_ctrls.num_reads::total               16959                       # Number of read requests responded to by this memory
system.mem_ctrls.bw_read::.cpu.inst           2844819                       # Total read bandwidth from this memory (bytes/s)
system.mem_ctrls.bw_read::.cpu.data          25319391                       # Total read bandwidth from this memory (bytes/s)
system.mem_ctrls.bw_read::total              28164210                       # Total read bandwidth from this memory (bytes/s)
system.mem_ctrls.bw_inst_read::.cpu.inst      2844819                       # Instruction read bandwidth from this memory (bytes/s)
system.mem_ctrls.bw_inst_read::total          2844819                       # Instruction read bandwidth from this memory (bytes/s)
system.mem_ctrls.bw_total::.cpu.inst          2844819                       # Total bandwidth to/from this memory (bytes/s)
system.mem_ctrls.bw_total::.cpu.data         25319391                       # Total bandwidth to/from this memory (bytes/s)
system.mem_ctrls.bw_total::total             28164210                       # Total bandwidth to/from this memory (bytes/s)
system.mem_ctrls.avgPriority_.cpu.inst::samples      1713.00                       # Average QoS priority value for accepted requests
system.mem_ctrls.avgPriority_.cpu.data::samples     15246.00                       # Average QoS priority value for accepted requests
system.mem_ctrls.priorityMinLatency      0.000000018750                       # per QoS priority minimum request to response latency (s)
system.mem_ctrls.priorityMaxLatency      0.000000579500                       # per QoS priority maximum request to response latency (s)
system.mem_ctrls.numReadWriteTurnArounds            0                       # Number of turnarounds from READ to WRITE
system.mem_ctrls.numWriteReadTurnArounds            0                       # Number of turnarounds from WRITE to READ
system.mem_ctrls.numStayReadState               43782                       # Number of times bus staying in READ state
system.mem_ctrls.numStayWriteState                  0                       # Number of times bus staying in WRITE state
system.mem_ctrls.readReqs                       16959                       # Number of read requests accepted
system.mem_ctrls.writeReqs                          0                       # Number of write requests accepted
system.mem_ctrls.readBursts                     16959                       # Number of DRAM read bursts, including those serviced by the write queue
system.mem_ctrls.writeBursts                        0                       # Number of DRAM write bursts, including those merged in the write queue
system.mem_ctrls.servicedByWrQ                      0                       # Number of DRAM read bursts serviced by the write queue
system.mem_ctrls.mergedWrBursts                     0                       # Number of DRAM write bursts merged with an existing one
system.mem_ctrls.neitherReadNorWriteReqs            0                       # Number of requests that are neither read nor write
system.mem_ctrls.perBankRdBursts::0               969                       # Per bank write bursts
system.mem_ctrls.perBankRdBursts::1              1060                       # Per bank write bursts
system.mem_ctrls.perBankRdBursts::2              1042                       # Per bank write bursts
system.mem_ctrls.perBankRdBursts::3              1137                       # Per bank write bursts
system.mem_ctrls.perBankRdBursts::4              1276                       # Per bank write bursts
system.mem_ctrls.perBankRdBursts::5              1165                       # Per bank write bursts
system.mem_ctrls.perBankRdBursts::6              1020                       # Per bank write bursts
system.mem_ctrls.perBankRdBursts::7              1042                       # Per bank write bursts
system.mem_ctrls.perBankRdBursts::8              1107                       # Per bank write bursts
system.mem_ctrls.perBankRdBursts::9              1028                       # Per bank write bursts
system.mem_ctrls.perBankRdBursts::10              922                       # Per bank write bursts
system.mem_ctrls.perBankRdBursts::11             1086                       # Per bank write bursts
system.mem_ctrls.perBankRdBursts::12             1262                       # Per bank write bursts
system.mem_ctrls.perBankRdBursts::13             1062                       # Per bank write bursts
system.mem_ctrls.perBankRdBursts::14              916                       # Per bank write bursts
system.mem_ctrls.perBankRdBursts::15              865                       # Per bank write bursts
system.mem_ctrls.perBankWrBursts::0                 0                       # Per bank write bursts
system.mem_ctrls.perBankWrBursts::1                 0                       # Per bank write bursts
system.mem_ctrls.perBankWrBursts::2                 0                       # Per bank write bursts
system.mem_ctrls.perBankWrBursts::3                 0                       # Per bank write bursts
system.mem_ctrls.perBankWrBursts::4                 0                       # Per bank write bursts
system.mem_ctrls.perBankWrBursts::5                 0                       # Per bank write bursts
system.mem_ctrls.perBankWrBursts::6                 0                       # Per bank write bursts
system.mem_ctrls.perBankWrBursts::7                 0                       # Per bank write bursts
system.mem_ctrls.perBankWrBursts::8                 0                       # Per bank write bursts
system.mem_ctrls.perBankWrBursts::9                 0                       # Per bank write bursts
system.mem_ctrls.perBankWrBursts::10                0                       # Per bank write bursts
system.mem_ctrls.perBankWrBursts::11                0                       # Per bank write bursts
system.mem_ctrls.perBankWrBursts::12                0                       # Per bank write bursts
system.mem_ctrls.perBankWrBursts::13                0                       # Per bank write bursts
system.mem_ctrls.perBankWrBursts::14                0                       # Per bank write bursts
system.mem_ctrls.perBankWrBursts::15                0                       # Per bank write bursts
system.mem_ctrls.avgRdQLen                       1.03                       # Average read queue length when enqueuing
system.mem_ctrls.avgWrQLen                       0.00                       # Average write queue length when enqueuing
[...]
system.cpu.interrupts.clk_domain.clock          16000                       # Clock period in ticks
system.cpu.itb_walker_cache.pwrStateResidencyTicks::UNDEFINED  38537420000                       # Cumulative time (in ticks) in various power states
system.cpu.itb_walker_cache.blocked_cycles::no_mshrs            0                       # number of cycles access was blocked
system.cpu.itb_walker_cache.blocked_cycles::no_targets            0                       # number of cycles access was blocked
system.cpu.itb_walker_cache.blocked::no_mshrs            0                       # number of cycles access was blocked
system.cpu.itb_walker_cache.blocked::no_targets            0                       # number of cycles access was blocked
system.cpu.itb_walker_cache.avg_blocked_cycles::no_mshrs          nan                       # average number of cycles each access was blocked
system.cpu.itb_walker_cache.avg_blocked_cycles::no_targets          nan                       # average number of cycles each access was blocked
system.cpu.itb_walker_cache.replacements            0                       # number of replacements
system.cpu.itb_walker_cache.tags.pwrStateResidencyTicks::UNDEFINED  38537420000                       # Cumulative time (in ticks) in various power states
system.cpu.itb_walker_cache.tags.tagsinuse            0                       # Cycle average of tags in use
system.cpu.itb_walker_cache.tags.total_refs            0                       # Total number of references to valid blocks.
system.cpu.itb_walker_cache.tags.sampled_refs            0                       # Sample count of references to valid blocks.
system.cpu.itb_walker_cache.tags.avg_refs          nan                       # Average number of references to valid blocks.
system.cpu.itb_walker_cache.tags.warmup_cycle            0                       # Cycle when the warmup percentage was hit.
system.cpu.itb_walker_cache.tags.tag_accesses            0                       # Number of tag accesses
system.cpu.itb_walker_cache.tags.data_accesses            0                       # Number of data accesses
system.cpu.itb.walker.pwrStateResidencyTicks::UNDEFINED  38537420000                       # Cumulative time (in ticks) in various power states
system.cpu.dtb_walker_cache.pwrStateResidencyTicks::UNDEFINED  38537420000                       # Cumulative time (in ticks) in various power states
system.cpu.dtb_walker_cache.blocked_cycles::no_mshrs            0                       # number of cycles access was blocked
system.cpu.dtb_walker_cache.blocked_cycles::no_targets            0                       # number of cycles access was blocked
system.cpu.dtb_walker_cache.blocked::no_mshrs            0                       # number of cycles access was blocked
system.cpu.dtb_walker_cache.blocked::no_targets            0                       # number of cycles access was blocked
system.cpu.dtb_walker_cache.avg_blocked_cycles::no_mshrs          nan                       # average number of cycles each access was blocked
system.cpu.dtb_walker_cache.avg_blocked_cycles::no_targets          nan                       # average number of cycles each access was blocked
system.cpu.dtb_walker_cache.replacements            0                       # number of replacements
system.cpu.dtb_walker_cache.tags.pwrStateResidencyTicks::UNDEFINED  38537420000                       # Cumulative time (in ticks) in various power states
system.cpu.dtb_walker_cache.tags.tagsinuse            0                       # Cycle average of tags in use
system.cpu.dtb_walker_cache.tags.total_refs            0                       # Total number of references to valid blocks.
system.cpu.dtb_walker_cache.tags.sampled_refs            0                       # Sample count of references to valid blocks.
system.cpu.dtb_walker_cache.tags.avg_refs          nan                       # Average number of references to valid blocks.
system.cpu.dtb_walker_cache.tags.warmup_cycle            0                       # Cycle when the warmup percentage was hit.
system.cpu.dtb_walker_cache.tags.tag_accesses            0                       # Number of tag accesses
system.cpu.dtb_walker_cache.tags.data_accesses            0                       # Number of data accesses
system.cpu.dcache.pwrStateResidencyTicks::UNDEFINED  38537420000                       # Cumulative time (in ticks) in various power states
system.cpu.dcache.demand_hits::.cpu.data     25618516                       # number of demand (read+write) hits
system.cpu.dcache.demand_hits::total         25618516                       # number of demand (read+write) hits
system.cpu.dcache.overall_hits::.cpu.data     25618543                       # number of overall hits
system.cpu.dcache.overall_hits::total        25618543                       # number of overall hits
system.cpu.dcache.demand_misses::.cpu.data       688497                       # number of demand (read+write) misses
system.cpu.dcache.demand_misses::total         688497                       # number of demand (read+write) misses
system.cpu.dcache.overall_misses::.cpu.data       691970                       # number of overall misses
system.cpu.dcache.overall_misses::total        691970                       # number of overall misses
system.cpu.dcache.demand_miss_latency::.cpu.data  15259731994                       # number of demand (read+write) miss cycles
system.cpu.dcache.demand_miss_latency::total  15259731994                       # number of demand (read+write) miss cycles
system.cpu.dcache.overall_miss_latency::.cpu.data  15259731994                       # number of overall miss cycles
system.cpu.dcache.overall_miss_latency::total  15259731994                       # number of overall miss cycles
system.cpu.dcache.demand_accesses::.cpu.data     26307013                       # number of demand (read+write) accesses
system.cpu.dcache.demand_accesses::total     26307013                       # number of demand (read+write) accesses
system.cpu.dcache.overall_accesses::.cpu.data     26310513                       # number of overall (read+write) accesses
system.cpu.dcache.overall_accesses::total     26310513                       # number of overall (read+write) accesses
system.cpu.dcache.demand_miss_rate::.cpu.data     0.026172                       # miss rate for demand accesses
system.cpu.dcache.demand_miss_rate::total     0.026172                       # miss rate for demand accesses
system.cpu.dcache.overall_miss_rate::.cpu.data     0.026300                       # miss rate for overall accesses
system.cpu.dcache.overall_miss_rate::total     0.026300                       # miss rate for overall accesses
system.cpu.dcache.demand_avg_miss_latency::.cpu.data 22163.832223                       # average overall miss latency
system.cpu.dcache.demand_avg_miss_latency::total 22163.832223                       # average overall miss latency
system.cpu.dcache.overall_avg_miss_latency::.cpu.data 22052.591867                       # average overall miss latency
system.cpu.dcache.overall_avg_miss_latency::total 22052.591867                       # average overall miss latency
system.cpu.dcache.blocked_cycles::no_mshrs        55081                       # number of cycles access was blocked
system.cpu.dcache.blocked_cycles::no_targets           56                       # number of cycles access was blocked
system.cpu.dcache.blocked::no_mshrs              2653                       # number of cycles access was blocked
system.cpu.dcache.blocked::no_targets               3                       # number of cycles access was blocked
system.cpu.dcache.avg_blocked_cycles::no_mshrs    20.761779                       # average number of cycles each access was blocked
system.cpu.dcache.avg_blocked_cycles::no_targets    18.666667                       # average number of cycles each access was blocked
system.cpu.dcache.writebacks::.writebacks       243158                       # number of writebacks
system.cpu.dcache.writebacks::total            243158                       # number of writebacks
system.cpu.dcache.demand_mshr_hits::.cpu.data       434291                       # number of demand (read+write) MSHR hits
system.cpu.dcache.demand_mshr_hits::total       434291                       # number of demand (read+write) MSHR hits
system.cpu.dcache.overall_mshr_hits::.cpu.data       434291                       # number of overall MSHR hits
system.cpu.dcache.overall_mshr_hits::total       434291                       # number of overall MSHR hits
system.cpu.dcache.demand_mshr_misses::.cpu.data       254206                       # number of demand (read+write) MSHR misses
system.cpu.dcache.demand_mshr_misses::total       254206                       # number of demand (read+write) MSHR misses
system.cpu.dcache.overall_mshr_misses::.cpu.data       257679                       # number of overall MSHR misses
system.cpu.dcache.overall_mshr_misses::total       257679                       # number of overall MSHR misses
system.cpu.dcache.demand_mshr_miss_latency::.cpu.data   7122326994                       # number of demand (read+write) MSHR miss cycles
system.cpu.dcache.demand_mshr_miss_latency::total   7122326994                       # number of demand (read+write) MSHR miss cycles
system.cpu.dcache.overall_mshr_miss_latency::.cpu.data   7345065994                       # number of overall MSHR miss cycles
system.cpu.dcache.overall_mshr_miss_latency::total   7345065994                       # number of overall MSHR miss cycles
system.cpu.dcache.demand_mshr_miss_rate::.cpu.data     0.009663                       # mshr miss rate for demand accesses
system.cpu.dcache.demand_mshr_miss_rate::total     0.009663                       # mshr miss rate for demand accesses
system.cpu.dcache.overall_mshr_miss_rate::.cpu.data     0.009794                       # mshr miss rate for overall accesses
system.cpu.dcache.overall_mshr_miss_rate::total     0.009794                       # mshr miss rate for overall accesses
system.cpu.dcache.demand_avg_mshr_miss_latency::.cpu.data 28017.934250                       # average overall mshr miss latency
system.cpu.dcache.demand_avg_mshr_miss_latency::total 28017.934250                       # average overall mshr miss latency
system.cpu.dcache.overall_avg_mshr_miss_latency::.cpu.data 28504.713205                       # average overall mshr miss latency
system.cpu.dcache.overall_avg_mshr_miss_latency::total 28504.713205                       # average overall mshr miss latency
system.cpu.dcache.replacements                 256655                       # number of replacements
system.cpu.dcache.ReadReq_hits::.cpu.data     16601225                       # number of ReadReq hits
system.cpu.dcache.ReadReq_hits::total        16601225                       # number of ReadReq hits
system.cpu.dcache.ReadReq_misses::.cpu.data       659804                       # number of ReadReq misses
system.cpu.dcache.ReadReq_misses::total        659804                       # number of ReadReq misses
system.cpu.dcache.ReadReq_miss_latency::.cpu.data  13709668000                       # number of ReadReq miss cycles
system.cpu.dcache.ReadReq_miss_latency::total  13709668000                       # number of ReadReq miss cycles
system.cpu.dcache.ReadReq_accesses::.cpu.data     17261029                       # number of ReadReq accesses(hits+misses)
system.cpu.dcache.ReadReq_accesses::total     17261029                       # number of ReadReq accesses(hits+misses)
system.cpu.dcache.ReadReq_miss_rate::.cpu.data     0.038225                       # miss rate for ReadReq accesses
system.cpu.dcache.ReadReq_miss_rate::total     0.038225                       # miss rate for ReadReq accesses
system.cpu.dcache.ReadReq_avg_miss_latency::.cpu.data 20778.394796                       # average ReadReq miss latency
system.cpu.dcache.ReadReq_avg_miss_latency::total 20778.394796                       # average ReadReq miss latency
system.cpu.dcache.ReadReq_mshr_hits::.cpu.data       434166                       # number of ReadReq MSHR hits
system.cpu.dcache.ReadReq_mshr_hits::total       434166                       # number of ReadReq MSHR hits
system.cpu.dcache.ReadReq_mshr_misses::.cpu.data       225638                       # number of ReadReq MSHR misses
system.cpu.dcache.ReadReq_mshr_misses::total       225638                       # number of ReadReq MSHR misses
system.cpu.dcache.ReadReq_mshr_miss_latency::.cpu.data   5631355000                       # number of ReadReq MSHR miss cycles
system.cpu.dcache.ReadReq_mshr_miss_latency::total   5631355000                       # number of ReadReq MSHR miss cycles
system.cpu.dcache.ReadReq_mshr_miss_rate::.cpu.data     0.013072                       # mshr miss rate for ReadReq accesses
system.cpu.dcache.ReadReq_mshr_miss_rate::total     0.013072                       # mshr miss rate for ReadReq accesses
system.cpu.dcache.ReadReq_avg_mshr_miss_latency::.cpu.data 24957.476134                       # average ReadReq mshr miss latency
system.cpu.dcache.ReadReq_avg_mshr_miss_latency::total 24957.476134                       # average ReadReq mshr miss latency
system.cpu.dcache.WriteReq_hits::.cpu.data      9017291                       # number of WriteReq hits
system.cpu.dcache.WriteReq_hits::total        9017291                       # number of WriteReq hits
system.cpu.dcache.WriteReq_misses::.cpu.data        28693                       # number of WriteReq misses
system.cpu.dcache.WriteReq_misses::total        28693                       # number of WriteReq misses
system.cpu.dcache.WriteReq_miss_latency::.cpu.data   1550063994                       # number of WriteReq miss cycles
system.cpu.dcache.WriteReq_miss_latency::total   1550063994                       # number of WriteReq miss cycles
system.cpu.dcache.WriteReq_accesses::.cpu.data      9045984                       # number of WriteReq accesses(hits+misses)
system.cpu.dcache.WriteReq_accesses::total      9045984                       # number of WriteReq accesses(hits+misses)
system.cpu.dcache.WriteReq_miss_rate::.cpu.data     0.003172                       # miss rate for WriteReq accesses
system.cpu.dcache.WriteReq_miss_rate::total     0.003172                       # miss rate for WriteReq accesses
system.cpu.dcache.WriteReq_avg_miss_latency::.cpu.data 54022.374586                       # average WriteReq miss latency
system.cpu.dcache.WriteReq_avg_miss_latency::total 54022.374586                       # average WriteReq miss latency
system.cpu.dcache.WriteReq_mshr_hits::.cpu.data          125                       # number of WriteReq MSHR hits
system.cpu.dcache.WriteReq_mshr_hits::total          125                       # number of WriteReq MSHR hits
system.cpu.dcache.WriteReq_mshr_misses::.cpu.data        28568                       # number of WriteReq MSHR misses
system.cpu.dcache.WriteReq_mshr_misses::total        28568                       # number of WriteReq MSHR misses
system.cpu.dcache.WriteReq_mshr_miss_latency::.cpu.data   1490971994                       # number of WriteReq MSHR miss cycles
system.cpu.dcache.WriteReq_mshr_miss_latency::total   1490971994                       # number of WriteReq MSHR miss cycles
system.cpu.dcache.WriteReq_mshr_miss_rate::.cpu.data     0.003158                       # mshr miss rate for WriteReq accesses
system.cpu.dcache.WriteReq_mshr_miss_rate::total     0.003158                       # mshr miss rate for WriteReq accesses
system.cpu.dcache.WriteReq_avg_mshr_miss_latency::.cpu.data 52190.282624                       # average WriteReq mshr miss latency
system.cpu.dcache.WriteReq_avg_mshr_miss_latency::total 52190.282624                       # average WriteReq mshr miss latency
system.cpu.dcache.SoftPFReq_hits::.cpu.data           27                       # number of SoftPFReq hits
system.cpu.dcache.SoftPFReq_hits::total            27                       # number of SoftPFReq hits
system.cpu.dcache.SoftPFReq_misses::.cpu.data         3473                       # number of SoftPFReq misses
system.cpu.dcache.SoftPFReq_misses::total         3473                       # number of SoftPFReq misses
system.cpu.dcache.SoftPFReq_accesses::.cpu.data         3500                       # number of SoftPFReq accesses(hits+misses)
system.cpu.dcache.SoftPFReq_accesses::total         3500                       # number of SoftPFReq accesses(hits+misses)
system.cpu.dcache.SoftPFReq_miss_rate::.cpu.data     0.992286                       # miss rate for SoftPFReq accesses
system.cpu.dcache.SoftPFReq_miss_rate::total     0.992286                       # miss rate for SoftPFReq accesses
system.cpu.dcache.SoftPFReq_mshr_misses::.cpu.data         3473                       # number of SoftPFReq MSHR misses
system.cpu.dcache.SoftPFReq_mshr_misses::total         3473                       # number of SoftPFReq MSHR misses
system.cpu.dcache.SoftPFReq_mshr_miss_latency::.cpu.data    222739000                       # number of SoftPFReq MSHR miss cycles
system.cpu.dcache.SoftPFReq_mshr_miss_latency::total    222739000                       # number of SoftPFReq MSHR miss cycles
system.cpu.dcache.SoftPFReq_mshr_miss_rate::.cpu.data     0.992286                       # mshr miss rate for SoftPFReq accesses
system.cpu.dcache.SoftPFReq_mshr_miss_rate::total     0.992286                       # mshr miss rate for SoftPFReq accesses
system.cpu.dcache.SoftPFReq_avg_mshr_miss_latency::.cpu.data 64134.465880                       # average SoftPFReq mshr miss latency
system.cpu.dcache.SoftPFReq_avg_mshr_miss_latency::total 64134.465880                       # average SoftPFReq mshr miss latency
system.cpu.dcache.tags.pwrStateResidencyTicks::UNDEFINED  38537420000                       # Cumulative time (in ticks) in various power states
system.cpu.dcache.tags.tagsinuse          1021.814212                       # Cycle average of tags in use
system.cpu.dcache.tags.total_refs            25876222                       # Total number of references to valid blocks.
system.cpu.dcache.tags.sampled_refs            257679                       # Sample count of references to valid blocks.
system.cpu.dcache.tags.avg_refs            100.420376                       # Average number of references to valid blocks.
system.cpu.dcache.tags.warmup_cycle            223000                       # Cycle when the warmup percentage was hit.
system.cpu.dcache.tags.occ_blocks::.cpu.data  1021.814212                       # Average occupied blocks per requestor
system.cpu.dcache.tags.occ_percent::.cpu.data     0.997865                       # Average percentage of cache occupancy
system.cpu.dcache.tags.occ_percent::total     0.997865                       # Average percentage of cache occupancy
system.cpu.dcache.tags.occ_task_id_blocks::1024         1024                       # Occupied blocks per task id
system.cpu.dcache.tags.age_task_id_blocks_1024::0           60                       # Occupied blocks per task id
system.cpu.dcache.tags.age_task_id_blocks_1024::1          603                       # Occupied blocks per task id
system.cpu.dcache.tags.age_task_id_blocks_1024::2          241                       # Occupied blocks per task id
system.cpu.dcache.tags.age_task_id_blocks_1024::3           53                       # Occupied blocks per task id
system.cpu.dcache.tags.age_task_id_blocks_1024::4           67                       # Occupied blocks per task id
system.cpu.dcache.tags.occ_task_id_percent::1024            1                       # Percentage of cache occupancy per task id
system.cpu.dcache.tags.tag_accesses          52878705                       # Number of tag accesses
system.cpu.dcache.tags.data_accesses         52878705                       # Number of data accesses

---------- End Simulation Statistics   ----------
