
---------- Begin Simulation Statistics ----------
final_tick                                38421810000                       # Number of ticks from beginning of simulation (restored from checkpoints and never reset)
host_inst_rate                                 161266                       # Simulator instruction rate (inst/s)
host_mem_usage                                 842584                       # Number of bytes of host memory used
host_op_rate                                   270762                       # Simulator op (including micro ops) rate (op/s)
host_seconds                                   359.85                       # Real time elapsed on the host
host_tick_rate                              106772363                       # Simulator tick rate (ticks/s)
sim_freq                                 1000000000000                       # Frequency of simulated ticks
sim_insts                                    58031203                       # Number of instructions simulated
sim_ops                                      97433054                       # Number of ops (including micro ops) simulated
sim_seconds                                  0.038422                       # Number of seconds simulated
sim_ticks                                 38421810000                       # Number of ticks simulated
system.cpu.branchPred.BTBCorrect                    0                       # Number of correct BTB predictions (this stat may not work properly.
system.cpu.branchPred.BTBHitPct              0.000000                       # BTB Hit Percentage
system.cpu.branchPred.BTBHits                       0                       # Number of BTB hits
system.cpu.branchPred.BTBLookups              7162974                       # Number of BTB lookups
system.cpu.branchPred.RASInCorrect                 37                       # Number of incorrect RAS predictions.
system.cpu.branchPred.condIncorrect            397059                       # Number of conditional branches incorrect
system.cpu.branchPred.condPredicted           7361121                       # Number of conditional branches predicted
system.cpu.branchPred.indirectHits            4397517                       # Number of indirect target hits.
system.cpu.branchPred.indirectLookups         7162974                       # Number of indirect predictor lookups.
system.cpu.branchPred.indirectMisses          2765457                       # Number of indirect misses.
system.cpu.branchPred.lookups                 8306355                       # Number of BP lookups
system.cpu.branchPred.usedRAS                  468041                       # Number of times the RAS was used to get a target.
system.cpu.branchPredindirectMispredicted       253940                       # Number of mispredicted indirect branches.
system.cpu.cc_regfile_reads                  36391552                       # number of cc regfile reads
system.cpu.cc_regfile_writes                 27680551                       # number of cc regfile writes
system.cpu.commit.amos                              0                       # Number of atomic instructions committed
system.cpu.commit.branchMispredicts            397106                       # The number of times a branch was mispredicted
system.cpu.commit.branches                    6128620                       # Number of branches committed
system.cpu.commit.bw_lim_events               7014488                       # number cycles where commit BW limit reached
system.cpu.commit.commitNonSpecStalls             342                       # The number of times commit has been forced to stall to communicate backwards
system.cpu.commit.commitSquashedInsts        11760427                       # The number of squashed insts skipped by commit
system.cpu.commit.committedInsts             58031203                       # Number of instructions committed
system.cpu.commit.committedOps               97433054                       # Number of ops (including micro ops) committed
system.cpu.commit.committed_per_cycle::samples     36599672                       # Number of insts commited each cycle
system.cpu.commit.committed_per_cycle::mean     2.662129                       # Number of insts commited each cycle
system.cpu.commit.committed_per_cycle::stdev     3.070634                       # Number of insts commited each cycle
system.cpu.commit.committed_per_cycle::underflows            0      0.00%      0.00% # Number of insts commited each cycle
system.cpu.commit.committed_per_cycle::0     14231637     38.88%     38.88% # Number of insts commited each cycle
system.cpu.commit.committed_per_cycle::1      4424724     12.09%     50.97% # Number of insts commited each cycle
system.cpu.commit.committed_per_cycle::2      4419026     12.07%     63.05% # Number of insts commited each cycle
system.cpu.commit.committed_per_cycle::3      2817589      7.70%     70.75% # Number of insts commited each cycle
system.cpu.commit.committed_per_cycle::4      1198984      3.28%     74.02% # Number of insts commited each cycle
system.cpu.commit.committed_per_cycle::5       570804      1.56%     75.58% # Number of insts commited each cycle
system.cpu.commit.committed_per_cycle::6      1505289      4.11%     79.69% # Number of insts commited each cycle
system.cpu.commit.committed_per_cycle::7       417131      1.14%     80.83% # Number of insts commited each cycle
system.cpu.commit.committed_per_cycle::8      7014488     19.17%    100.00% # Number of insts commited each cycle
system.cpu.commit.committed_per_cycle::overflows            0      0.00%    100.00% # Number of insts commited each cycle
system.cpu.commit.committed_per_cycle::min_value            0                       # Number of insts commited each cycle
system.cpu.commit.committed_per_cycle::max_value            8                       # Number of insts commited each cycle
system.cpu.commit.committed_per_cycle::total     36599672                       # Number of insts commited each cycle
system.cpu.commit.fp_insts                   15257866                       # Number of committed floating point instructions.
system.cpu.commit.function_calls               331381                       # Number of function calls committed.
system.cpu.commit.int_insts                  88475678                       # Number of committed integer instructions.
system.cpu.commit.loads                      29041349                       # Number of loads committed
system.cpu.commit.membars                           0                       # Number of memory barriers committed
system.cpu.commit.op_class_0::No_OpClass       396158      0.41%      0.41% # Class of committed instruction
system.cpu.commit.op_class_0::IntAlu         49791704     51.10%     51.51% # Class of committed instruction
system.cpu.commit.op_class_0::IntMult           41115      0.04%     51.55% # Class of committed instruction
system.cpu.commit.op_class_0::IntDiv           555804      0.57%     52.12% # Class of committed instruction
system.cpu.commit.op_class_0::FloatAdd        4888605      5.02%     57.14% # Class of committed instruction
system.cpu.commit.op_class_0::FloatCmp              0      0.00%     57.14% # Class of committed instruction
system.cpu.commit.op_class_0::FloatCvt            240      0.00%     57.14% # Class of committed instruction
system.cpu.commit.op_class_0::FloatMult             0      0.00%     57.14% # Class of committed instruction
system.cpu.commit.op_class_0::FloatMultAcc            0      0.00%     57.14% # Class of committed instruction
system.cpu.commit.op_class_0::FloatDiv              0      0.00%     57.14% # Class of committed instruction
system.cpu.commit.op_class_0::FloatMisc             0      0.00%     57.14% # Class of committed instruction
system.cpu.commit.op_class_0::FloatSqrt             0      0.00%     57.14% # Class of committed instruction
system.cpu.commit.op_class_0::SimdAdd               0      0.00%     57.14% # Class of committed instruction
system.cpu.commit.op_class_0::SimdAddAcc            0      0.00%     57.14% # Class of committed instruction
system.cpu.commit.op_class_0::SimdAlu           55888      0.06%     57.20% # Class of committed instruction
system.cpu.commit.op_class_0::SimdCmp               0      0.00%     57.20% # Class of committed instruction
system.cpu.commit.op_class_0::SimdCvt           74006      0.08%     57.27% # Class of committed instruction
system.cpu.commit.op_class_0::SimdMisc         211704      0.22%     57.49% # Class of committed instruction
system.cpu.commit.op_class_0::SimdMult              0      0.00%     57.49% # Class of committed instruction
system.cpu.commit.op_class_0::SimdMultAcc            0      0.00%     57.49% # Class of committed instruction
system.cpu.commit.op_class_0::SimdShift             0      0.00%     57.49% # Class of committed instruction
system.cpu.commit.op_class_0::SimdShiftAcc            0      0.00%     57.49% # Class of committed instruction
system.cpu.commit.op_class_0::SimdDiv               0      0.00%     57.49% # Class of committed instruction
system.cpu.commit.op_class_0::SimdSqrt              0      0.00%     57.49% # Class of committed instruction
system.cpu.commit.op_class_0::SimdFloatAdd      1642100      1.69%     59.18% # Class of committed instruction
system.cpu.commit.op_class_0::SimdFloatAlu            0      0.00%     59.18% # Class of committed instruction
system.cpu.commit.op_class_0::SimdFloatCmp            0      0.00%     59.18% # Class of committed instruction
system.cpu.commit.op_class_0::SimdFloatCvt        23310      0.02%     59.20% # Class of committed instruction
system.cpu.commit.op_class_0::SimdFloatDiv        19110      0.02%     59.22% # Class of committed instruction
system.cpu.commit.op_class_0::SimdFloatMisc            0      0.00%     59.22% # Class of committed instruction
system.cpu.commit.op_class_0::SimdFloatMult      1646080      1.69%     60.91% # Class of committed instruction
system.cpu.commit.op_class_0::SimdFloatMultAcc            0      0.00%     60.91% # Class of committed instruction
system.cpu.commit.op_class_0::SimdFloatSqrt            0      0.00%     60.91% # Class of committed instruction
system.cpu.commit.op_class_0::SimdReduceAdd            0      0.00%     60.91% # Class of committed instruction
system.cpu.commit.op_class_0::SimdReduceAlu            0      0.00%     60.91% # Class of committed instruction
system.cpu.commit.op_class_0::SimdReduceCmp            0      0.00%     60.91% # Class of committed instruction
system.cpu.commit.op_class_0::SimdFloatReduceAdd            0      0.00%     60.91% # Class of committed instruction
system.cpu.commit.op_class_0::SimdFloatReduceCmp            0      0.00%     60.91% # Class of committed instruction
system.cpu.commit.op_class_0::SimdAes               0      0.00%     60.91% # Class of committed instruction
system.cpu.commit.op_class_0::SimdAesMix            0      0.00%     60.91% # Class of committed instruction
system.cpu.commit.op_class_0::SimdSha1Hash            0      0.00%     60.91% # Class of committed instruction
system.cpu.commit.op_class_0::SimdSha1Hash2            0      0.00%     60.91% # Class of committed instruction
system.cpu.commit.op_class_0::SimdSha256Hash            0      0.00%     60.91% # Class of committed instruction
system.cpu.commit.op_class_0::SimdSha256Hash2            0      0.00%     60.91% # Class of committed instruction
system.cpu.commit.op_class_0::SimdShaSigma2            0      0.00%     60.91% # Class of committed instruction
system.cpu.commit.op_class_0::SimdShaSigma3            0      0.00%     60.91% # Class of committed instruction
system.cpu.commit.op_class_0::SimdPredAlu            0      0.00%     60.91% # Class of committed instruction
system.cpu.commit.op_class_0::MemRead        24082189     24.72%     85.63% # Class of committed instruction
system.cpu.commit.op_class_0::MemWrite        7400535      7.60%     93.22% # Class of committed instruction
system.cpu.commit.op_class_0::FloatMemRead      4959160      5.09%     98.31% # Class of committed instruction
system.cpu.commit.op_class_0::FloatMemWrite      1645346      1.69%    100.00% # Class of committed instruction
system.cpu.commit.op_class_0::IprAccess             0      0.00%    100.00% # Class of committed instruction
system.cpu.commit.op_class_0::InstPrefetch            0      0.00%    100.00% # Class of committed instruction
system.cpu.commit.op_class_0::total          97433054                       # Class of committed instruction
system.cpu.commit.refs                       38087230                       # Number of memory references committed
system.cpu.commit.swp_count                         0                       # Number of s/w prefetches committed
system.cpu.commit.vec_insts                         0                       # Number of committed Vector instructions.
system.cpu.committedInsts                    58031203                       # Number of Instructions Simulated
system.cpu.committedOps                      97433054                       # Number of Ops (including micro ops) Simulated
system.cpu.cpi                               0.662089                       # CPI: Cycles Per Instruction
system.cpu.cpi_total                         0.662089                       # CPI: Total CPI of All Threads
system.cpu.decode.BlockedCycles              12955332                       # Number of cycles decode is blocked
system.cpu.decode.DecodedInsts              114398633                       # Number of instructions handled by decode
system.cpu.decode.IdleCycles                  8818794                       # Number of cycles decode is idle
system.cpu.decode.RunCycles                  12352009                       # Number of cycles decode is running
system.cpu.decode.SquashCycles                 401462                       # Number of cycles decode is squashing
system.cpu.decode.UnblockCycles               3793008                       # Number of cycles decode is unblocking
system.cpu.dtb.rdAccesses                    29764868                       # TLB accesses on read requests
system.cpu.dtb.rdMisses                         13343                       # TLB misses on read requests
system.cpu.dtb.wrAccesses                     9275581                       # TLB accesses on write requests
system.cpu.dtb.wrMisses                          3122                       # TLB misses on write requests
system.cpu.fetch.Branches                     8306355                       # Number of branches that fetch encountered
system.cpu.fetch.CacheLines                   7595076                       # Number of cache lines fetched
system.cpu.fetch.Cycles                      26804490                       # Number of cycles fetch has run and was not squashing or blocked
system.cpu.fetch.IcacheSquashes                139269                       # Number of outstanding Icache misses that were squashed
system.cpu.fetch.Insts                       67814830                       # Number of instructions fetch has processed
system.cpu.fetch.MiscStallCycles                   83                       # Number of cycles fetch has spent waiting on interrupts, or bad addresses, or out of MSHRs
system.cpu.fetch.PendingQuiesceStallCycles          417                       # Number of stall cycles due to pending quiesce instructions
system.cpu.fetch.PendingTrapStallCycles           499                       # Number of stall cycles due to pending traps
system.cpu.fetch.SquashCycles                  802924                       # Number of cycles fetch has spent squashing
system.cpu.fetch.branchRate                  0.216189                       # Number of branch fetches per cycle
system.cpu.fetch.icacheStallCycles           11113654                       # Number of cycles fetch is stalled on an Icache miss
system.cpu.fetch.predictedBranches            4865558                       # Number of branches that fetch has predicted taken
system.cpu.fetch.rate                        1.765009                       # Number of inst fetches per cycle
system.cpu.fetch.rateDist::samples           38320605                       # Number of instructions fetched each cycle (Total)
system.cpu.fetch.rateDist::mean              3.055125                       # Number of instructions fetched each cycle (Total)
system.cpu.fetch.rateDist::stdev             3.572493                       # Number of instructions fetched each cycle (Total)
system.cpu.fetch.rateDist::underflows               0      0.00%      0.00% # Number of instructions fetched each cycle (Total)
system.cpu.fetch.rateDist::0                 18889603     49.29%     49.29% # Number of instructions fetched each cycle (Total)
system.cpu.fetch.rateDist::1                  1924702      5.02%     54.32% # Number of instructions fetched each cycle (Total)
system.cpu.fetch.rateDist::2                  2275220      5.94%     60.25% # Number of instructions fetched each cycle (Total)
system.cpu.fetch.rateDist::3                   772773      2.02%     62.27% # Number of instructions fetched each cycle (Total)
system.cpu.fetch.rateDist::4                   507824      1.33%     63.60% # Number of instructions fetched each cycle (Total)
system.cpu.fetch.rateDist::5                  1210041      3.16%     66.75% # Number of instructions fetched each cycle (Total)
system.cpu.fetch.rateDist::6                   434984      1.14%     67.89% # Number of instructions fetched each cycle (Total)
system.cpu.fetch.rateDist::7                   854299      2.23%     70.12% # Number of instructions fetched each cycle (Total)
system.cpu.fetch.rateDist::8                 11451159     29.88%    100.00% # Number of instructions fetched each cycle (Total)
system.cpu.fetch.rateDist::overflows                0      0.00%    100.00% # Number of instructions fetched each cycle (Total)
system.cpu.fetch.rateDist::min_value                0                       # Number of instructions fetched each cycle (Total)
system.cpu.fetch.rateDist::max_value                8                       # Number of instructions fetched each cycle (Total)
system.cpu.fetch.rateDist::total             38320605                       # Number of instructions fetched each cycle (Total)
system.cpu.fp_regfile_reads                  12473653                       # number of floating regfile reads
system.cpu.fp_regfile_writes                 13568372                       # number of floating regfile writes
system.cpu.idleCycles                          101206                       # Total number of cycles that the CPU has spent unscheduled due to idling
system.cpu.iew.branchMispredicts               495374                       # Number of branch mispredicts detected at execute
system.cpu.iew.exec_branches                  6654497                       # Number of branches executed
system.cpu.iew.exec_nop                             0                       # number of nop insts executed
system.cpu.iew.exec_rate                     2.702316                       # Inst execution rate
system.cpu.iew.exec_refs                     39030532                       # number of memory reference insts executed
system.cpu.iew.exec_stores                    9275088                       # Number of stores executed
system.cpu.iew.exec_swp                             0                       # number of swp insts executed
system.cpu.iew.iewBlockCycles                 1353659                       # Number of cycles IEW is blocking
system.cpu.iew.iewDispLoadInsts              30310415                       # Number of dispatched load instructions
system.cpu.iew.iewDispNonSpecInsts              22465                       # Number of dispatched non-speculative instructions
system.cpu.iew.iewDispSquashedInsts             18767                       # Number of squashed instructions skipped by dispatch
system.cpu.iew.iewDispStoreInsts              9730301                       # Number of dispatched store instructions
system.cpu.iew.iewDispatchedInsts           109193275                       # Number of instructions dispatched to IQ
system.cpu.iew.iewExecLoadInsts              29755444                       # Number of load instructions executed
system.cpu.iew.iewExecSquashedInsts            890180                       # Number of squashed instructions skipped in execute
system.cpu.iew.iewExecutedInsts             103827879                       # Number of executed instructions
system.cpu.iew.iewIQFullEvents                   1329                       # Number of times the IQ has become full, causing a stall
system.cpu.iew.iewIdleCycles                        0                       # Number of cycles IEW is idle
system.cpu.iew.iewLSQFullEvents                 29525                       # Number of times the LSQ has become full, causing a stall
system.cpu.iew.iewSquashCycles                 401462                       # Number of cycles IEW is squashing
system.cpu.iew.iewUnblockCycles                 31296                       # Number of cycles IEW is unblocking
system.cpu.iew.lsq.thread0.blockedLoads             0                       # Number of blocked loads due to partial load-store forwarding
system.cpu.iew.lsq.thread0.cacheBlocked          2320                       # Number of times an access to memory failed due to the cache being blocked
system.cpu.iew.lsq.thread0.forwLoads         12486090                       # Number of loads that had data forwarded from stores
system.cpu.iew.lsq.thread0.ignoredResponses        10883                       # Number of memory responses ignored because the instruction is squashed
system.cpu.iew.lsq.thread0.invAddrLoads             0                       # Number of loads ignored due to an invalid address
system.cpu.iew.lsq.thread0.invAddrSwpfs             0                       # Number of software prefetches ignored due to an invalid address
system.cpu.iew.lsq.thread0.memOrderViolation         5556                       # Number of memory ordering violations
system.cpu.iew.lsq.thread0.rescheduledLoads          765                       # Number of loads that were rescheduled
system.cpu.iew.lsq.thread0.squashedLoads      1269066                       # Number of loads squashed
system.cpu.iew.lsq.thread0.squashedStores       684420                       # Number of stores squashed
system.cpu.iew.memOrderViolationEvents           5556                       # Number of memory order violations
system.cpu.iew.predictedNotTakenIncorrect       409068                       # Number of branches that were predicted not taken incorrectly
system.cpu.iew.predictedTakenIncorrect          86306                       # Number of branches that were predicted taken incorrectly
system.cpu.iew.wb_consumers                 105468481                       # num instructions consuming a value
system.cpu.iew.wb_count                     103538592                       # cumulative count of insts written-back
system.cpu.iew.wb_fanout                     0.726425                       # average fanout of values written-back
system.cpu.iew.wb_producers                  76614924                       # num instructions producing a value
system.cpu.iew.wb_rate                       2.694787                       # insts written-back per cycle
system.cpu.iew.wb_sent                      103648463                       # cumulative count of insts sent to commit
system.cpu.int_regfile_reads                157555945                       # number of integer regfile reads
system.cpu.int_regfile_writes                75005904                       # number of integer regfile writes
system.cpu.ipc                               1.510371                       # IPC: Instructions Per Cycle
system.cpu.ipc_total                         1.510371                       # IPC: Total IPC of All Threads
system.cpu.iq.FU_type_0::No_OpClass            567290      0.54%      0.54% # Type of FU issued
system.cpu.iq.FU_type_0::IntAlu              55630061     53.12%     53.67% # Type of FU issued
system.cpu.iq.FU_type_0::IntMult                41483      0.04%     53.71% # Type of FU issued
system.cpu.iq.FU_type_0::IntDiv                589447      0.56%     54.27% # Type of FU issued
system.cpu.iq.FU_type_0::FloatAdd             4913204      4.69%     58.96% # Type of FU issued
system.cpu.iq.FU_type_0::FloatCmp                   0      0.00%     58.96% # Type of FU issued
system.cpu.iq.FU_type_0::FloatCvt                1050      0.00%     58.96% # Type of FU issued
system.cpu.iq.FU_type_0::FloatMult                  0      0.00%     58.96% # Type of FU issued
system.cpu.iq.FU_type_0::FloatMultAcc               0      0.00%     58.96% # Type of FU issued
system.cpu.iq.FU_type_0::FloatDiv                   0      0.00%     58.96% # Type of FU issued
system.cpu.iq.FU_type_0::FloatMisc                  0      0.00%     58.96% # Type of FU issued
system.cpu.iq.FU_type_0::FloatSqrt                  0      0.00%     58.96% # Type of FU issued
system.cpu.iq.FU_type_0::SimdAdd                    0      0.00%     58.96% # Type of FU issued
system.cpu.iq.FU_type_0::SimdAddAcc                 0      0.00%     58.96% # Type of FU issued
system.cpu.iq.FU_type_0::SimdAlu                58701      0.06%     59.02% # Type of FU issued
system.cpu.iq.FU_type_0::SimdCmp                    0      0.00%     59.02% # Type of FU issued
system.cpu.iq.FU_type_0::SimdCvt                79090      0.08%     59.09% # Type of FU issued
system.cpu.iq.FU_type_0::SimdMisc              216539      0.21%     59.30% # Type of FU issued
system.cpu.iq.FU_type_0::SimdMult                   0      0.00%     59.30% # Type of FU issued
system.cpu.iq.FU_type_0::SimdMultAcc                0      0.00%     59.30% # Type of FU issued
system.cpu.iq.FU_type_0::SimdShift                  0      0.00%     59.30% # Type of FU issued
system.cpu.iq.FU_type_0::SimdShiftAcc               0      0.00%     59.30% # Type of FU issued
system.cpu.iq.FU_type_0::SimdDiv                    0      0.00%     59.30% # Type of FU issued
system.cpu.iq.FU_type_0::SimdSqrt                   0      0.00%     59.30% # Type of FU issued
system.cpu.iq.FU_type_0::SimdFloatAdd         1642334      1.57%     60.87% # Type of FU issued
system.cpu.iq.FU_type_0::SimdFloatAlu               0      0.00%     60.87% # Type of FU issued
system.cpu.iq.FU_type_0::SimdFloatCmp               0      0.00%     60.87% # Type of FU issued
system.cpu.iq.FU_type_0::SimdFloatCvt           23427      0.02%     60.89% # Type of FU issued
system.cpu.iq.FU_type_0::SimdFloatDiv           19221      0.02%     60.91% # Type of FU issued
system.cpu.iq.FU_type_0::SimdFloatMisc              0      0.00%     60.91% # Type of FU issued
system.cpu.iq.FU_type_0::SimdFloatMult        1646207      1.57%     62.48% # Type of FU issued
system.cpu.iq.FU_type_0::SimdFloatMultAcc            0      0.00%     62.48% # Type of FU issued
system.cpu.iq.FU_type_0::SimdFloatSqrt              0      0.00%     62.48% # Type of FU issued
system.cpu.iq.FU_type_0::SimdReduceAdd              0      0.00%     62.48% # Type of FU issued
system.cpu.iq.FU_type_0::SimdReduceAlu              0      0.00%     62.48% # Type of FU issued
system.cpu.iq.FU_type_0::SimdReduceCmp              0      0.00%     62.48% # Type of FU issued
system.cpu.iq.FU_type_0::SimdFloatReduceAdd            0      0.00%     62.48% # Type of FU issued
system.cpu.iq.FU_type_0::SimdFloatReduceCmp            0      0.00%     62.48% # Type of FU issued
system.cpu.iq.FU_type_0::SimdAes                    0      0.00%     62.48% # Type of FU issued
system.cpu.iq.FU_type_0::SimdAesMix                 0      0.00%     62.48% # Type of FU issued
system.cpu.iq.FU_type_0::SimdSha1Hash               0      0.00%     62.48% # Type of FU issued
system.cpu.iq.FU_type_0::SimdSha1Hash2              0      0.00%     62.48% # Type of FU issued
system.cpu.iq.FU_type_0::SimdSha256Hash             0      0.00%     62.48% # Type of FU issued
system.cpu.iq.FU_type_0::SimdSha256Hash2            0      0.00%     62.48% # Type of FU issued
system.cpu.iq.FU_type_0::SimdShaSigma2              0      0.00%     62.48% # Type of FU issued
system.cpu.iq.FU_type_0::SimdShaSigma3              0      0.00%     62.48% # Type of FU issued
system.cpu.iq.FU_type_0::SimdPredAlu                0      0.00%     62.48% # Type of FU issued
system.cpu.iq.FU_type_0::MemRead             24944040     23.82%     86.30% # Type of FU issued
system.cpu.iq.FU_type_0::MemWrite             7713147      7.37%     93.67% # Type of FU issued
system.cpu.iq.FU_type_0::FloatMemRead         4985831      4.76%     98.43% # Type of FU issued
system.cpu.iq.FU_type_0::FloatMemWrite        1646987      1.57%    100.00% # Type of FU issued
system.cpu.iq.FU_type_0::IprAccess                  0      0.00%    100.00% # Type of FU issued
system.cpu.iq.FU_type_0::InstPrefetch               0      0.00%    100.00% # Type of FU issued
system.cpu.iq.FU_type_0::total              104718059                       # Type of FU issued
system.cpu.iq.fp_alu_accesses                15328465                       # Number of floating point alu accesses
system.cpu.iq.fp_inst_queue_reads            30654960                       # Number of floating instruction queue reads
system.cpu.iq.fp_inst_queue_wakeup_accesses     15302355                       # Number of floating instruction queue wakeup accesses
system.cpu.iq.fp_inst_queue_writes           15522374                       # Number of floating instruction queue writes
system.cpu.iq.fu_busy_cnt                     1911280                       # FU busy when requested
system.cpu.iq.fu_busy_rate                   0.018252                       # FU busy rate (busy events/executed inst)
system.cpu.iq.fu_full::No_OpClass                   0      0.00%      0.00% # attempts to use FU when none available
system.cpu.iq.fu_full::IntAlu                  847031     44.32%     44.32% # attempts to use FU when none available
system.cpu.iq.fu_full::IntMult                      0      0.00%     44.32% # attempts to use FU when none available
system.cpu.iq.fu_full::IntDiv                       0      0.00%     44.32% # attempts to use FU when none available
system.cpu.iq.fu_full::FloatAdd                     0      0.00%     44.32% # attempts to use FU when none available
system.cpu.iq.fu_full::FloatCmp                     0      0.00%     44.32% # attempts to use FU when none available
system.cpu.iq.fu_full::FloatCvt                     3      0.00%     44.32% # attempts to use FU when none available
system.cpu.iq.fu_full::FloatMult                    0      0.00%     44.32% # attempts to use FU when none available
system.cpu.iq.fu_full::FloatMultAcc                 0      0.00%     44.32% # attempts to use FU when none available
system.cpu.iq.fu_full::FloatDiv                     0      0.00%     44.32% # attempts to use FU when none available
system.cpu.iq.fu_full::FloatMisc                    0      0.00%     44.32% # attempts to use FU when none available
system.cpu.iq.fu_full::FloatSqrt                    0      0.00%     44.32% # attempts to use FU when none available
system.cpu.iq.fu_full::SimdAdd                      0      0.00%     44.32% # attempts to use FU when none available
system.cpu.iq.fu_full::SimdAddAcc                   0      0.00%     44.32% # attempts to use FU when none available
system.cpu.iq.fu_full::SimdAlu                     21      0.00%     44.32% # attempts to use FU when none available
system.cpu.iq.fu_full::SimdCmp                      0      0.00%     44.32% # attempts to use FU when none available
system.cpu.iq.fu_full::SimdCvt                      2      0.00%     44.32% # attempts to use FU when none available
system.cpu.iq.fu_full::SimdMisc                    66      0.00%     44.32% # attempts to use FU when none available
system.cpu.iq.fu_full::SimdMult                     0      0.00%     44.32% # attempts to use FU when none available
system.cpu.iq.fu_full::SimdMultAcc                  0      0.00%     44.32% # attempts to use FU when none available
system.cpu.iq.fu_full::SimdShift                    0      0.00%     44.32% # attempts to use FU when none available
system.cpu.iq.fu_full::SimdShiftAcc                 0      0.00%     44.32% # attempts to use FU when none available
system.cpu.iq.fu_full::SimdDiv                      0      0.00%     44.32% # attempts to use FU when none available
system.cpu.iq.fu_full::SimdSqrt                     0      0.00%     44.32% # attempts to use FU when none available
system.cpu.iq.fu_full::SimdFloatAdd                 0      0.00%     44.32% # attempts to use FU when none available
system.cpu.iq.fu_full::SimdFloatAlu                 0      0.00%     44.32% # attempts to use FU when none available
system.cpu.iq.fu_full::SimdFloatCmp                 0      0.00%     44.32% # attempts to use FU when none available
system.cpu.iq.fu_full::SimdFloatCvt                 0      0.00%     44.32% # attempts to use FU when none available
system.cpu.iq.fu_full::SimdFloatDiv                 0      0.00%     44.32% # attempts to use FU when none available
system.cpu.iq.fu_full::SimdFloatMisc                0      0.00%     44.32% # attempts to use FU when none available
system.cpu.iq.fu_full::SimdFloatMult                0      0.00%     44.32% # attempts to use FU when none available
system.cpu.iq.fu_full::SimdFloatMultAcc             0      0.00%     44.32% # attempts to use FU when none available
system.cpu.iq.fu_full::SimdFloatSqrt                0      0.00%     44.32% # attempts to use FU when none available
system.cpu.iq.fu_full::SimdReduceAdd                0      0.00%     44.32% # attempts to use FU when none available
system.cpu.iq.fu_full::SimdReduceAlu                0      0.00%     44.32% # attempts to use FU when none available
system.cpu.iq.fu_full::SimdReduceCmp                0      0.00%     44.32% # attempts to use FU when none available
system.cpu.iq.fu_full::SimdFloatReduceAdd            0      0.00%     44.32% # attempts to use FU when none available
system.cpu.iq.fu_full::SimdFloatReduceCmp            0      0.00%     44.32% # attempts to use FU when none available
system.cpu.iq.fu_full::SimdAes                      0      0.00%     44.32% # attempts to use FU when none available
system.cpu.iq.fu_full::SimdAesMix                   0      0.00%     44.32% # attempts to use FU when none available
system.cpu.iq.fu_full::SimdSha1Hash                 0      0.00%     44.32% # attempts to use FU when none available
system.cpu.iq.fu_full::SimdSha1Hash2                0      0.00%     44.32% # attempts to use FU when none available
system.cpu.iq.fu_full::SimdSha256Hash               0      0.00%     44.32% # attempts to use FU when none available
system.cpu.iq.fu_full::SimdSha256Hash2              0      0.00%     44.32% # attempts to use FU when none available
system.cpu.iq.fu_full::SimdShaSigma2                0      0.00%     44.32% # attempts to use FU when none available
system.cpu.iq.fu_full::SimdShaSigma3                0      0.00%     44.32% # attempts to use FU when none available
system.cpu.iq.fu_full::SimdPredAlu                  0      0.00%     44.32% # attempts to use FU when none available
system.cpu.iq.fu_full::MemRead                1047202     54.79%     99.11% # attempts to use FU when none available
system.cpu.iq.fu_full::MemWrite                 14674      0.77%     99.88% # attempts to use FU when none available
system.cpu.iq.fu_full::FloatMemRead              1392      0.07%     99.95% # attempts to use FU when none available
system.cpu.iq.fu_full::FloatMemWrite              889      0.05%    100.00% # attempts to use FU when none available
system.cpu.iq.fu_full::IprAccess                    0      0.00%    100.00% # attempts to use FU when none available
system.cpu.iq.fu_full::InstPrefetch                 0      0.00%    100.00% # attempts to use FU when none available
system.cpu.iq.int_alu_accesses               90733584                       # Number of integer alu accesses
system.cpu.iq.int_inst_queue_reads          219139645                       # Number of integer instruction queue reads
system.cpu.iq.int_inst_queue_wakeup_accesses     88236237                       # Number of integer instruction queue wakeup accesses
system.cpu.iq.int_inst_queue_writes         105436398                       # Number of integer instruction queue writes
system.cpu.iq.iqInstsAdded                  109126723                       # Number of instructions added to the IQ (excludes non-spec)
system.cpu.iq.iqInstsIssued                 104718059                       # Number of instructions issued
system.cpu.iq.iqNonSpecInstsAdded               66552                       # Number of non-speculative instructions added to the IQ
system.cpu.iq.iqSquashedInstsExamined        11760220                       # Number of squashed instructions iterated over during squash; mainly for profiling
system.cpu.iq.iqSquashedInstsIssued            126602                       # Number of squashed instructions issued
system.cpu.iq.iqSquashedNonSpecRemoved          66210                       # Number of squashed non-spec instructions that were removed
system.cpu.iq.iqSquashedOperandsExamined     19417058                       # Number of squashed operands that are examined and possibly removed from graph
system.cpu.iq.issued_per_cycle::samples      38320605                       # Number of insts issued each cycle
system.cpu.iq.issued_per_cycle::mean         2.732683                       # Number of insts issued each cycle
system.cpu.iq.issued_per_cycle::stdev        2.276214                       # Number of insts issued each cycle
system.cpu.iq.issued_per_cycle::underflows            0      0.00%      0.00% # Number of insts issued each cycle
system.cpu.iq.issued_per_cycle::0             9282783     24.22%     24.22% # Number of insts issued each cycle
system.cpu.iq.issued_per_cycle::1             4767500     12.44%     36.67% # Number of insts issued each cycle
system.cpu.iq.issued_per_cycle::2             5310784     13.86%     50.52% # Number of insts issued each cycle
system.cpu.iq.issued_per_cycle::3             4551847     11.88%     62.40% # Number of insts issued each cycle
system.cpu.iq.issued_per_cycle::4             4792785     12.51%     74.91% # Number of insts issued each cycle
system.cpu.iq.issued_per_cycle::5             4362176     11.38%     86.29% # Number of insts issued each cycle
system.cpu.iq.issued_per_cycle::6             2885651      7.53%     93.82% # Number of insts issued each cycle
system.cpu.iq.issued_per_cycle::7             1559108      4.07%     97.89% # Number of insts issued each cycle
system.cpu.iq.issued_per_cycle::8              807971      2.11%    100.00% # Number of insts issued each cycle
system.cpu.iq.issued_per_cycle::overflows            0      0.00%    100.00% # Number of insts issued each cycle
system.cpu.iq.issued_per_cycle::min_value            0                       # Number of insts issued each cycle
system.cpu.iq.issued_per_cycle::max_value            8                       # Number of insts issued each cycle
system.cpu.iq.issued_per_cycle::total        38320605                       # Number of insts issued each cycle
system.cpu.iq.rate                           2.725485                       # Inst issue rate
system.cpu.iq.vec_alu_accesses                      0                       # Number of vector alu accesses
system.cpu.iq.vec_inst_queue_reads                  0                       # Number of vector instruction queue reads
system.cpu.iq.vec_inst_queue_wakeup_accesses            0                       # Number of vector instruction queue wakeup accesses
system.cpu.iq.vec_inst_queue_writes                 0                       # Number of vector instruction queue writes
system.cpu.itb.rdAccesses                           0                       # TLB accesses on read requests
system.cpu.itb.rdMisses                             0                       # TLB misses on read requests
system.cpu.itb.wrAccesses                     7595164                       # TLB accesses on write requests
system.cpu.itb.wrMisses                           247                       # TLB misses on write requests
system.cpu.memDep0.conflictingLoads          11509405                       # Number of conflicting loads.
system.cpu.memDep0.conflictingStores          5387986                       # Number of conflicting stores.
system.cpu.memDep0.insertedLoads             30310415                       # Number of loads inserted to the mem dependence unit.
system.cpu.memDep0.insertedStores             9730301                       # Number of stores inserted to the mem dependence unit.
system.cpu.misc_regfile_reads                52315954                       # number of misc regfile reads
system.cpu.misc_regfile_writes                    143                       # number of misc regfile writes
system.cpu.numCycles                         38421811                       # number of cpu cycles simulated
system.cpu.numWorkItemsCompleted                    0                       # number of work items this cpu completed
system.cpu.numWorkItemsStarted                      0                       # number of work items this cpu started
system.cpu.rename.BlockCycles                 1457743                       # Number of cycles rename is blocking
system.cpu.rename.CommittedMaps             109139378                       # Number of HB maps that are committed
system.cpu.rename.FullRegisterEvents                2                       # Number of times there has been no free registers
system.cpu.rename.IQFullEvents                 329559                       # Number of times rename has blocked due to IQ full
system.cpu.rename.IdleCycles                 10387136                       # Number of cycles rename is idle
system.cpu.rename.LQFullEvents                9266716                       # Number of times rename has blocked due to LQ full
system.cpu.rename.ROBFullEvents                  5069                       # Number of times rename has blocked due to ROB full
system.cpu.rename.RenameLookups             286408082                       # Number of register rename lookups that rename has made
system.cpu.rename.RenamedInsts              112662887                       # Number of instructions processed by rename
system.cpu.rename.RenamedOperands           127341338                       # Number of destination operands rename has renamed
system.cpu.rename.RunCycles                  14510092                       # Number of cycles rename is running
system.cpu.rename.SQFullEvents                1073595                       # Number of times rename has blocked due to SQ full
system.cpu.rename.SquashCycles                 401462                       # Number of cycles rename is squashing
system.cpu.rename.UnblockCycles              11553887                       # Number of cycles rename is unblocking
system.cpu.rename.UndoneMaps                 18201960                       # Number of HB maps that are undone due to squashing
system.cpu.rename.fp_rename_lookups          12604555                       # Number of floating rename lookups
system.cpu.rename.int_rename_lookups        174251892                       # Number of integer rename lookups
system.cpu.rename.serializeStallCycles          10285                       # count of cycles rename stalled for serializing inst
system.cpu.rename.serializingInsts                771                       # count of serializing insts renamed
system.cpu.rename.skidInsts                  18262590                       # count of insts added to the skid buffer
system.cpu.rename.tempSerializingInsts            834                       # count of temporary serializing insts renamed
system.cpu.rob.rob_reads                    138778665                       # The number of ROB reads
system.cpu.rob.rob_writes                   220132811                       # The number of ROB writes
system.cpu.timesIdled                           33153                       # Number of times that the entire CPU went into an idle state and unscheduled itself
system.cpu.workload.numSyscalls                   203                       # Number of system calls
system.membus.snoop_filter.hit_multi_requests            0                       # Number of requests hitting in the snoop filter with multiple (>1) holders of the requested data.
system.membus.snoop_filter.hit_multi_snoops            0                       # Number of snoops hitting in the snoop filter with multiple (>1) holders of the requested data.
system.membus.snoop_filter.hit_single_requests            0                       # Number of requests hitting in the snoop filter with a single holder of the requested data.
system.membus.snoop_filter.hit_single_snoops            0                       # Number of snoops hitting in the snoop filter with a single holder of the requested data.
system.membus.snoop_filter.tot_requests         16969                       # Total number of requests made to the snoop filter.
system.membus.snoop_filter.tot_snoops               0                       # Total number of snoops made to the snoop filter.
system.tol2bus.snoop_filter.hit_multi_requests          189                       # Number of requests hitting in the snoop filter with multiple (>1) holders of the requested data.
system.tol2bus.snoop_filter.hit_multi_snoops            0                       # Number of snoops hitting in the snoop filter with multiple (>1) holders of the requested data.
system.tol2bus.snoop_filter.hit_single_requests       400692                       # Number of requests hitting in the snoop filter with a single holder of the requested data.
system.tol2bus.snoop_filter.hit_single_snoops            0                       # Number of snoops hitting in the snoop filter with a single holder of the requested data.
system.tol2bus.snoop_filter.tot_requests       803377                       # Total number of requests made to the snoop filter.
system.tol2bus.snoop_filter.tot_snoops              0                       # Total number of snoops made to the snoop filter.
system.membus.pwrStateResidencyTicks::UNDEFINED  38421810000                       # Cumulative time (in ticks) in various power states
system.membus.trans_dist::ReadResp               6077                       # Transaction distribution
system.membus.trans_dist::ReadExReq             10892                       # Transaction distribution
system.membus.trans_dist::ReadExResp            10892                       # Transaction distribution
system.membus.trans_dist::ReadSharedReq          6077                       # Transaction distribution
system.membus.pkt_count_system.l2.mem_side::system.mem_ctrls.port        33938                       # Packet count per connected master and slave (bytes)
system.membus.pkt_count_system.l2.mem_side::total        33938                       # Packet count per connected master and slave (bytes)
system.membus.pkt_count::total                  33938                       # Packet count per connected master and slave (bytes)
system.membus.pkt_size_system.l2.mem_side::system.mem_ctrls.port      1086016                       # Cumulative packet size per connected master and slave (bytes)
system.membus.pkt_size_system.l2.mem_side::total      1086016                       # Cumulative packet size per connected master and slave (bytes)
system.membus.pkt_size::total                 1086016                       # Cumulative packet size per connected master and slave (bytes)
system.membus.snoops                                0                       # Total snoops (count)
system.membus.snoopTraffic                          0                       # Total snoop traffic (bytes)
system.membus.snoop_fanout::samples             16969                       # Request fanout histogram
system.membus.snoop_fanout::mean                    0                       # Request fanout histogram
system.membus.snoop_fanout::stdev                   0                       # Request fanout histogram
system.membus.snoop_fanout::underflows              0      0.00%      0.00% # Request fanout histogram
system.membus.snoop_fanout::0                   16969    100.00%    100.00% # Request fanout histogram
system.membus.snoop_fanout::1                       0      0.00%    100.00% # Request fanout histogram
system.membus.snoop_fanout::overflows               0      0.00%    100.00% # Request fanout histogram
system.membus.snoop_fanout::min_value               0                       # Request fanout histogram
system.membus.snoop_fanout::max_value               0                       # Request fanout histogram
system.membus.snoop_fanout::total               16969                       # Request fanout histogram
system.membus.reqLayer2.occupancy            16969000                       # Layer occupancy (ticks)
system.membus.reqLayer2.utilization               0.0                       # Layer utilization (%)
system.membus.respLayer1.occupancy           89466250                       # Layer occupancy (ticks)
system.membus.respLayer1.utilization              0.2                       # Layer utilization (%)
system.tol2bus.pwrStateResidencyTicks::UNDEFINED  38421810000                       # Cumulative time (in ticks) in various power states
system.tol2bus.trans_dist::ReadResp            380441                       # Transaction distribution
system.tol2bus.trans_dist::WritebackDirty       231603                       # Transaction distribution
system.tol2bus.trans_dist::WritebackClean       157139                       # Transaction distribution
system.tol2bus.trans_dist::CleanEvict           11949                       # Transaction distribution
system.tol2bus.trans_dist::UpgradeReq               1                       # Transaction distribution
system.tol2bus.trans_dist::UpgradeResp              1                       # Transaction distribution
system.tol2bus.trans_dist::ReadExReq            22243                       # Transaction distribution
system.tol2bus.trans_dist::ReadExResp           22243                       # Transaction distribution
system.tol2bus.trans_dist::ReadCleanReq        158109                       # Transaction distribution
system.tol2bus.trans_dist::ReadSharedReq       222333                       # Transaction distribution
system.tol2bus.pkt_count_system.cpu.icache.mem_side::system.l2.cpu_side       473355                       # Packet count per connected master and slave (bytes)
system.tol2bus.pkt_count_system.cpu.dcache.mem_side::system.l2.cpu_side       732706                       # Packet count per connected master and slave (bytes)
system.tol2bus.pkt_count::total               1206061                       # Packet count per connected master and slave (bytes)
system.tol2bus.pkt_size_system.cpu.icache.mem_side::system.l2.cpu_side     20175744                       # Cumulative packet size per connected master and slave (bytes)
system.tol2bus.pkt_size_system.cpu.dcache.mem_side::system.l2.cpu_side     30475456                       # Cumulative packet size per connected master and slave (bytes)
system.tol2bus.pkt_size::total               50651200                       # Cumulative packet size per connected master and slave (bytes)
system.tol2bus.snoops                               1                       # Total snoops (count)
system.tol2bus.snoopTraffic                        64                       # Total snoop traffic (bytes)
system.tol2bus.snoop_fanout::samples           402686                       # Request fanout histogram
system.tol2bus.snoop_fanout::mean            0.000472                       # Request fanout histogram
system.tol2bus.snoop_fanout::stdev           0.021717                       # Request fanout histogram
system.tol2bus.snoop_fanout::underflows             0      0.00%      0.00% # Request fanout histogram
system.tol2bus.snoop_fanout::0                 402496     99.95%     99.95% # Request fanout histogram
system.tol2bus.snoop_fanout::1                    190      0.05%    100.00% # Request fanout histogram
system.tol2bus.snoop_fanout::2                      0      0.00%    100.00% # Request fanout histogram
system.tol2bus.snoop_fanout::3                      0      0.00%    100.00% # Request fanout histogram
system.tol2bus.snoop_fanout::4                      0      0.00%    100.00% # Request fanout histogram
system.tol2bus.snoop_fanout::overflows              0      0.00%    100.00% # Request fanout histogram
system.tol2bus.snoop_fanout::min_value              0                       # Request fanout histogram
system.tol2bus.snoop_fanout::max_value              1                       # Request fanout histogram
system.tol2bus.snoop_fanout::total             402686                       # Request fanout histogram
system.tol2bus.reqLayer0.occupancy         1580861000                       # Layer occupancy (ticks)
system.tol2bus.reqLayer0.utilization              4.1                       # Layer utilization (%)
system.tol2bus.respLayer1.occupancy         733731997                       # Layer occupancy (ticks)
system.tol2bus.respLayer1.utilization             1.9                       # Layer utilization (%)
system.tol2bus.respLayer0.occupancy         474329994                       # Layer occupancy (ticks)
system.tol2bus.respLayer0.utilization             1.2                       # Layer utilization (%)
system.voltage_domain.voltage                       1                       # Voltage in Volts
system.clk_domain.clock                          1000                       # Clock period in ticks
system.l2.pwrStateResidencyTicks::UNDEFINED  38421810000                       # Cumulative time (in ticks) in various power states
system.l2.demand_hits::.cpu.inst               156386                       # number of demand (read+write) hits
system.l2.demand_hits::.cpu.data               229327                       # number of demand (read+write) hits
system.l2.demand_hits::total                   385713                       # number of demand (read+write) hits
system.l2.overall_hits::.cpu.inst              156386                       # number of overall hits
system.l2.overall_hits::.cpu.data              229327                       # number of overall hits
system.l2.overall_hits::total                  385713                       # number of overall hits
system.l2.demand_misses::.cpu.inst               1722                       # number of demand (read+write) misses
system.l2.demand_misses::.cpu.data              15249                       # number of demand (read+write) misses
system.l2.demand_misses::total                  16971                       # number of demand (read+write) misses
system.l2.overall_misses::.cpu.inst              1722                       # number of overall misses
system.l2.overall_misses::.cpu.data             15249                       # number of overall misses
system.l2.overall_misses::total                 16971                       # number of overall misses
system.l2.demand_miss_latency::.cpu.inst    169397000                       # number of demand (read+write) miss cycles
system.l2.demand_miss_latency::.cpu.data   1464398000                       # number of demand (read+write) miss cycles
system.l2.demand_miss_latency::total       1633795000                       # number of demand (read+write) miss cycles
system.l2.overall_miss_latency::.cpu.inst    169397000                       # number of overall miss cycles
system.l2.overall_miss_latency::.cpu.data   1464398000                       # number of overall miss cycles
system.l2.overall_miss_latency::total      1633795000                       # number of overall miss cycles
system.l2.demand_accesses::.cpu.inst           158108                       # number of demand (read+write) accesses
system.l2.demand_accesses::.cpu.data           244576                       # number of demand (read+write) accesses
system.l2.demand_accesses::total               402684                       # number of demand (read+write) accesses
system.l2.overall_accesses::.cpu.inst          158108                       # number of overall (read+write) accesses
system.l2.overall_accesses::.cpu.data          244576                       # number of overall (read+write) accesses
system.l2.overall_accesses::total              402684                       # number of overall (read+write) accesses
system.l2.demand_miss_rate::.cpu.inst        0.010891                       # miss rate for demand accesses
system.l2.demand_miss_rate::.cpu.data        0.062349                       # miss rate for demand accesses
system.l2.demand_miss_rate::total            0.042145                       # miss rate for demand accesses
system.l2.overall_miss_rate::.cpu.inst       0.010891                       # miss rate for overall accesses
system.l2.overall_miss_rate::.cpu.data       0.062349                       # miss rate for overall accesses
system.l2.overall_miss_rate::total           0.042145                       # miss rate for overall accesses
system.l2.demand_avg_miss_latency::.cpu.inst 98372.241580                       # average overall miss latency
system.l2.demand_avg_miss_latency::.cpu.data 96032.395567                       # average overall miss latency
system.l2.demand_avg_miss_latency::total 96269.813211                       # average overall miss latency
system.l2.overall_avg_miss_latency::.cpu.inst 98372.241580                       # average overall miss latency
system.l2.overall_avg_miss_latency::.cpu.data 96032.395567                       # average overall miss latency
system.l2.overall_avg_miss_latency::total 96269.813211                       # average overall miss latency
system.l2.blocked_cycles::no_mshrs                  0                       # number of cycles access was blocked
system.l2.blocked_cycles::no_targets                0                       # number of cycles access was blocked
system.l2.blocked::no_mshrs                         0                       # number of cycles access was blocked
system.l2.blocked::no_targets                       0                       # number of cycles access was blocked
system.l2.avg_blocked_cycles::no_mshrs            nan                       # average number of cycles each access was blocked
system.l2.avg_blocked_cycles::no_targets          nan                       # average number of cycles each access was blocked
system.l2.demand_mshr_hits::.cpu.data               1                       # number of demand (read+write) MSHR hits
system.l2.demand_mshr_hits::total                   1                       # number of demand (read+write) MSHR hits
system.l2.overall_mshr_hits::.cpu.data              1                       # number of overall MSHR hits
system.l2.overall_mshr_hits::total                  1                       # number of overall MSHR hits
system.l2.demand_mshr_misses::.cpu.inst          1722                       # number of demand (read+write) MSHR misses
system.l2.demand_mshr_misses::.cpu.data         15248                       # number of demand (read+write) MSHR misses
system.l2.demand_mshr_misses::total             16970                       # number of demand (read+write) MSHR misses
system.l2.overall_mshr_misses::.cpu.inst         1722                       # number of overall MSHR misses
system.l2.overall_mshr_misses::.cpu.data        15248                       # number of overall MSHR misses
system.l2.overall_mshr_misses::total            16970                       # number of overall MSHR misses
system.l2.demand_mshr_miss_latency::.cpu.inst    134977000                       # number of demand (read+write) MSHR miss cycles
system.l2.demand_mshr_miss_latency::.cpu.data   1159366000                       # number of demand (read+write) MSHR miss cycles
system.l2.demand_mshr_miss_latency::total   1294343000                       # number of demand (read+write) MSHR miss cycles
system.l2.overall_mshr_miss_latency::.cpu.inst    134977000                       # number of overall MSHR miss cycles
system.l2.overall_mshr_miss_latency::.cpu.data   1159366000                       # number of overall MSHR miss cycles
system.l2.overall_mshr_miss_latency::total   1294343000                       # number of overall MSHR miss cycles
system.l2.demand_mshr_miss_rate::.cpu.inst     0.010891                       # mshr miss rate for demand accesses
system.l2.demand_mshr_miss_rate::.cpu.data     0.062345                       # mshr miss rate for demand accesses
system.l2.demand_mshr_miss_rate::total       0.042142                       # mshr miss rate for demand accesses
system.l2.overall_mshr_miss_rate::.cpu.inst     0.010891                       # mshr miss rate for overall accesses
system.l2.overall_mshr_miss_rate::.cpu.data     0.062345                       # mshr miss rate for overall accesses
system.l2.overall_mshr_miss_rate::total      0.042142                       # mshr miss rate for overall accesses
system.l2.demand_avg_mshr_miss_latency::.cpu.inst 78383.855981                       # average overall mshr miss latency
system.l2.demand_avg_mshr_miss_latency::.cpu.data 76033.971668                       # average overall mshr miss latency
system.l2.demand_avg_mshr_miss_latency::total 76272.421921                       # average overall mshr miss latency
system.l2.overall_avg_mshr_miss_latency::.cpu.inst 78383.855981                       # average overall mshr miss latency
system.l2.overall_avg_mshr_miss_latency::.cpu.data 76033.971668                       # average overall mshr miss latency
system.l2.overall_avg_mshr_miss_latency::total 76272.421921                       # average overall mshr miss latency
system.l2.replacements                              0                       # number of replacements
system.l2.WritebackDirty_hits::.writebacks       231603                       # number of WritebackDirty hits
system.l2.WritebackDirty_hits::total           231603                       # number of WritebackDirty hits
system.l2.WritebackDirty_accesses::.writebacks       231603                       # number of WritebackDirty accesses(hits+misses)
system.l2.WritebackDirty_accesses::total       231603                       # number of WritebackDirty accesses(hits+misses)
system.l2.WritebackClean_hits::.writebacks       157139                       # number of WritebackClean hits
system.l2.WritebackClean_hits::total           157139                       # number of WritebackClean hits
system.l2.WritebackClean_accesses::.writebacks       157139                       # number of WritebackClean accesses(hits+misses)
system.l2.WritebackClean_accesses::total       157139                       # number of WritebackClean accesses(hits+misses)
system.l2.UpgradeReq_hits::.cpu.data                1                       # number of UpgradeReq hits
system.l2.UpgradeReq_hits::total                    1                       # number of UpgradeReq hits
system.l2.UpgradeReq_accesses::.cpu.data            1                       # number of UpgradeReq accesses(hits+misses)
system.l2.UpgradeReq_accesses::total                1                       # number of UpgradeReq accesses(hits+misses)
system.l2.ReadExReq_hits::.cpu.data             11351                       # number of ReadExReq hits
system.l2.ReadExReq_hits::total                 11351                       # number of ReadExReq hits
system.l2.ReadExReq_misses::.cpu.data           10892                       # number of ReadExReq misses
system.l2.ReadExReq_misses::total               10892                       # number of ReadExReq misses
system.l2.ReadExReq_miss_latency::.cpu.data   1032477000                       # number of ReadExReq miss cycles
system.l2.ReadExReq_miss_latency::total    1032477000                       # number of ReadExReq miss cycles
system.l2.ReadExReq_accesses::.cpu.data         22243                       # number of ReadExReq accesses(hits+misses)
system.l2.ReadExReq_accesses::total             22243                       # number of ReadExReq accesses(hits+misses)
system.l2.ReadExReq_miss_rate::.cpu.data     0.489682                       # miss rate for ReadExReq accesses
system.l2.ReadExReq_miss_rate::total         0.489682                       # miss rate for ReadExReq accesses
system.l2.ReadExReq_avg_miss_latency::.cpu.data 94792.232831                       # average ReadExReq miss latency
system.l2.ReadExReq_avg_miss_latency::total 94792.232831                       # average ReadExReq miss latency
system.l2.ReadExReq_mshr_misses::.cpu.data        10892                       # number of ReadExReq MSHR misses
system.l2.ReadExReq_mshr_misses::total          10892                       # number of ReadExReq MSHR misses
system.l2.ReadExReq_mshr_miss_latency::.cpu.data    814637000                       # number of ReadExReq MSHR miss cycles
system.l2.ReadExReq_mshr_miss_latency::total    814637000                       # number of ReadExReq MSHR miss cycles
system.l2.ReadExReq_mshr_miss_rate::.cpu.data     0.489682                       # mshr miss rate for ReadExReq accesses
system.l2.ReadExReq_mshr_miss_rate::total     0.489682                       # mshr miss rate for ReadExReq accesses
system.l2.ReadExReq_avg_mshr_miss_latency::.cpu.data 74792.232831                       # average ReadExReq mshr miss latency
system.l2.ReadExReq_avg_mshr_miss_latency::total 74792.232831                       # average ReadExReq mshr miss latency
system.l2.ReadCleanReq_hits::.cpu.inst         156386                       # number of ReadCleanReq hits
system.l2.ReadCleanReq_hits::total             156386                       # number of ReadCleanReq hits
system.l2.ReadCleanReq_misses::.cpu.inst         1722                       # number of ReadCleanReq misses
system.l2.ReadCleanReq_misses::total             1722                       # number of ReadCleanReq misses
system.l2.ReadCleanReq_miss_latency::.cpu.inst    169397000                       # number of ReadCleanReq miss cycles
system.l2.ReadCleanReq_miss_latency::total    169397000                       # number of ReadCleanReq miss cycles
system.l2.ReadCleanReq_accesses::.cpu.inst       158108                       # number of ReadCleanReq accesses(hits+misses)
system.l2.ReadCleanReq_accesses::total         158108                       # number of ReadCleanReq accesses(hits+misses)
system.l2.ReadCleanReq_miss_rate::.cpu.inst     0.010891                       # miss rate for ReadCleanReq accesses
system.l2.ReadCleanReq_miss_rate::total      0.010891                       # miss rate for ReadCleanReq accesses
system.l2.ReadCleanReq_avg_miss_latency::.cpu.inst 98372.241580                       # average ReadCleanReq miss latency
system.l2.ReadCleanReq_avg_miss_latency::total 98372.241580                       # average ReadCleanReq miss latency
system.l2.ReadCleanReq_mshr_misses::.cpu.inst         1722                       # number of ReadCleanReq MSHR misses
system.l2.ReadCleanReq_mshr_misses::total         1722                       # number of ReadCleanReq MSHR misses
system.l2.ReadCleanReq_mshr_miss_latency::.cpu.inst    134977000                       # number of ReadCleanReq MSHR miss cycles
system.l2.ReadCleanReq_mshr_miss_latency::total    134977000                       # number of ReadCleanReq MSHR miss cycles
system.l2.ReadCleanReq_mshr_miss_rate::.cpu.inst     0.010891                       # mshr miss rate for ReadCleanReq accesses
system.l2.ReadCleanReq_mshr_miss_rate::total     0.010891                       # mshr miss rate for ReadCleanReq accesses
system.l2.ReadCleanReq_avg_mshr_miss_latency::.cpu.inst 78383.855981                       # average ReadCleanReq mshr miss latency
system.l2.ReadCleanReq_avg_mshr_miss_latency::total 78383.855981                       # average ReadCleanReq mshr miss latency
system.l2.ReadSharedReq_hits::.cpu.data        217976                       # number of ReadSharedReq hits
system.l2.ReadSharedReq_hits::total            217976                       # number of ReadSharedReq hits
system.l2.ReadSharedReq_misses::.cpu.data         4357                       # number of ReadSharedReq misses
system.l2.ReadSharedReq_misses::total            4357                       # number of ReadSharedReq misses
system.l2.ReadSharedReq_miss_latency::.cpu.data    431921000                       # number of ReadSharedReq miss cycles
system.l2.ReadSharedReq_miss_latency::total    431921000                       # number of ReadSharedReq miss cycles
system.l2.ReadSharedReq_accesses::.cpu.data       222333                       # number of ReadSharedReq accesses(hits+misses)
system.l2.ReadSharedReq_accesses::total        222333                       # number of ReadSharedReq accesses(hits+misses)
system.l2.ReadSharedReq_miss_rate::.cpu.data     0.019597                       # miss rate for ReadSharedReq accesses
system.l2.ReadSharedReq_miss_rate::total     0.019597                       # miss rate for ReadSharedReq accesses
system.l2.ReadSharedReq_avg_miss_latency::.cpu.data 99132.660087                       # average ReadSharedReq miss latency
system.l2.ReadSharedReq_avg_miss_latency::total 99132.660087                       # average ReadSharedReq miss latency
system.l2.ReadSharedReq_mshr_hits::.cpu.data            1                       # number of ReadSharedReq MSHR hits
system.l2.ReadSharedReq_mshr_hits::total            1                       # number of ReadSharedReq MSHR hits
system.l2.ReadSharedReq_mshr_misses::.cpu.data         4356                       # number of ReadSharedReq MSHR misses
system.l2.ReadSharedReq_mshr_misses::total         4356                       # number of ReadSharedReq MSHR misses
system.l2.ReadSharedReq_mshr_miss_latency::.cpu.data    344729000                       # number of ReadSharedReq MSHR miss cycles
system.l2.ReadSharedReq_mshr_miss_latency::total    344729000                       # number of ReadSharedReq MSHR miss cycles
system.l2.ReadSharedReq_mshr_miss_rate::.cpu.data     0.019592                       # mshr miss rate for ReadSharedReq accesses
system.l2.ReadSharedReq_mshr_miss_rate::total     0.019592                       # mshr miss rate for ReadSharedReq accesses
system.l2.ReadSharedReq_avg_mshr_miss_latency::.cpu.data 79138.888889                       # average ReadSharedReq mshr miss latency
system.l2.ReadSharedReq_avg_mshr_miss_latency::total 79138.888889                       # average ReadSharedReq mshr miss latency
system.l2.tags.pwrStateResidencyTicks::UNDEFINED  38421810000                       # Cumulative time (in ticks) in various power states
system.l2.tags.tagsinuse                 10430.080436                       # Cycle average of tags in use
system.l2.tags.total_refs                      803276                       # Total number of references to valid blocks.
system.l2.tags.sampled_refs                     16969                       # Sample count of references to valid blocks.
system.l2.tags.avg_refs                     47.337851                       # Average number of references to valid blocks.
system.l2.tags.warmup_cycle                     86000                       # Cycle when the warmup percentage was hit.
system.l2.tags.occ_blocks::.cpu.inst      1442.888844                       # Average occupied blocks per requestor
system.l2.tags.occ_blocks::.cpu.data      8987.191592                       # Average occupied blocks per requestor
system.l2.tags.occ_percent::.cpu.inst        0.044033                       # Average percentage of cache occupancy
system.l2.tags.occ_percent::.cpu.data        0.274267                       # Average percentage of cache occupancy
system.l2.tags.occ_percent::total            0.318301                       # Average percentage of cache occupancy
system.l2.tags.occ_task_id_blocks::1024         16969                       # Occupied blocks per task id
system.l2.tags.age_task_id_blocks_1024::0           77                       # Occupied blocks per task id
system.l2.tags.age_task_id_blocks_1024::1            7                       # Occupied blocks per task id
system.l2.tags.age_task_id_blocks_1024::2          394                       # Occupied blocks per task id
system.l2.tags.age_task_id_blocks_1024::3         4033                       # Occupied blocks per task id
system.l2.tags.age_task_id_blocks_1024::4        12458                       # Occupied blocks per task id
system.l2.tags.occ_task_id_percent::1024     0.517853                       # Percentage of cache occupancy per task id
system.l2.tags.tag_accesses                   6443193                       # Number of tag accesses
system.l2.tags.data_accesses                  6443193                       # Number of data accesses
system.cpu_voltage_domain.voltage                   1                       # Voltage in Volts
system.mem_ctrls.pwrStateResidencyTicks::UNDEFINED  38421810000                       # Cumulative time (in ticks) in various power states
system.mem_ctrls.bytes_read::.cpu.inst         110144                       # Number of bytes read from this memory
system.mem_ctrls.bytes_read::.cpu.data         975872                       # Number of bytes read from this memory
system.mem_ctrls.bytes_read::total            1086016                       # Number of bytes read from this memory
system.mem_ctrls.bytes_inst_read::.cpu.inst       110144                       # Number of instructions bytes read from this memory
system.mem_ctrls.bytes_inst_read::total        110144                       # Number of instructions bytes read from this memory
system.mem_ctrls.num_reads::.cpu.inst            1721                       # Number of read requests responded to by this memory
system.mem_ctrls.num_reads::.cpu.data           15248                       # Number of read requests responded to by this memory
system.mem_ctrls.num_reads::total               16969                       # Number of read requests responded to by this memory
system.mem_ctrls.bw_read::.cpu.inst           2866705                       # Total read bandwidth from this memory (bytes/s)
system.mem_ctrls.bw_read::.cpu.data          25398908                       # Total read bandwidth from this memory (bytes/s)
system.mem_ctrls.bw_read::total              28265613                       # Total read bandwidth from this memory (bytes/s)
system.mem_ctrls.bw_inst_read::.cpu.inst      2866705                       # Instruction read bandwidth from this memory (bytes/s)
system.mem_ctrls.bw_inst_read::total          2866705                       # Instruction read bandwidth from this memory (bytes/s)
system.mem_ctrls.bw_total::.cpu.inst          2866705                       # Total bandwidth to/from this memory (bytes/s)
system.mem_ctrls.bw_total::.cpu.data         25398908                       # Total bandwidth to/from this memory (bytes/s)
system.mem_ctrls.bw_total::total             28265613                       # Total bandwidth to/from this memory (bytes/s)
system.mem_ctrls.avgPriority_.cpu.inst::samples      1721.00                       # Average QoS priority value for accepted requests
system.mem_ctrls.avgPriority_.cpu.data::samples     15248.00                       # Average QoS priority value for accepted requests
system.mem_ctrls.priorityMinLatency      0.000000018750                       # per QoS priority minimum request to response latency (s)
system.mem_ctrls.priorityMaxLatency      0.000000579000                       # per QoS priority maximum request to response latency (s)
system.mem_ctrls.numReadWriteTurnArounds            0                       # Number of turnarounds from READ to WRITE
system.mem_ctrls.numWriteReadTurnArounds            0                       # Number of turnarounds from WRITE to READ
system.mem_ctrls.numStayReadState               43770                       # Number of times bus staying in READ state
system.mem_ctrls.numStayWriteState                  0                       # Number of times bus staying in WRITE state
system.mem_ctrls.readReqs                       16969                       # Number of read requests accepted
system.mem_ctrls.writeReqs                          0                       # Number of write requests accepted
system.mem_ctrls.readBursts                     16969                       # Number of DRAM read bursts, including those serviced by the write queue
system.mem_ctrls.writeBursts                        0                       # Number of DRAM write bursts, including those merged in the write queue
system.mem_ctrls.servicedByWrQ                      0                       # Number of DRAM read bursts serviced by the write queue
system.mem_ctrls.mergedWrBursts                     0                       # Number of DRAM write bursts merged with an existing one
system.mem_ctrls.neitherReadNorWriteReqs            0                       # Number of requests that are neither read nor write
system.mem_ctrls.perBankRdBursts::0               969                       # Per bank write bursts
system.mem_ctrls.perBankRdBursts::1              1060                       # Per bank write bursts
system.mem_ctrls.perBankRdBursts::2              1044                       # Per bank write bursts
system.mem_ctrls.perBankRdBursts::3              1133                       # Per bank write bursts
system.mem_ctrls.perBankRdBursts::4              1277                       # Per bank write bursts
system.mem_ctrls.perBankRdBursts::5              1166                       # Per bank write bursts
system.mem_ctrls.perBankRdBursts::6              1020                       # Per bank write bursts
system.mem_ctrls.perBankRdBursts::7              1043                       # Per bank write bursts
system.mem_ctrls.perBankRdBursts::8              1107                       # Per bank write bursts
system.mem_ctrls.perBankRdBursts::9              1028                       # Per bank write bursts
system.mem_ctrls.perBankRdBursts::10              923                       # Per bank write bursts
system.mem_ctrls.perBankRdBursts::11             1089                       # Per bank write bursts
system.mem_ctrls.perBankRdBursts::12             1266                       # Per bank write bursts
system.mem_ctrls.perBankRdBursts::13             1061                       # Per bank write bursts
system.mem_ctrls.perBankRdBursts::14              918                       # Per bank write bursts
system.mem_ctrls.perBankRdBursts::15              865                       # Per bank write bursts
system.mem_ctrls.perBankWrBursts::0                 0                       # Per bank write bursts
system.mem_ctrls.perBankWrBursts::1                 0                       # Per bank write bursts
system.mem_ctrls.perBankWrBursts::2                 0                       # Per bank write bursts
system.mem_ctrls.perBankWrBursts::3                 0                       # Per bank write bursts
system.mem_ctrls.perBankWrBursts::4                 0                       # Per bank write bursts
system.mem_ctrls.perBankWrBursts::5                 0                       # Per bank write bursts
system.mem_ctrls.perBankWrBursts::6                 0                       # Per bank write bursts
system.mem_ctrls.perBankWrBursts::7                 0                       # Per bank write bursts
system.mem_ctrls.perBankWrBursts::8                 0                       # Per bank write bursts
system.mem_ctrls.perBankWrBursts::9                 0                       # Per bank write bursts
system.mem_ctrls.perBankWrBursts::10                0                       # Per bank write bursts
[...]
system.cpu.interrupts.clk_domain.clock          16000                       # Clock period in ticks
system.cpu.itb_walker_cache.pwrStateResidencyTicks::UNDEFINED  38421810000                       # Cumulative time (in ticks) in various power states
system.cpu.itb_walker_cache.blocked_cycles::no_mshrs            0                       # number of cycles access was blocked
system.cpu.itb_walker_cache.blocked_cycles::no_targets            0                       # number of cycles access was blocked
system.cpu.itb_walker_cache.blocked::no_mshrs            0                       # number of cycles access was blocked
system.cpu.itb_walker_cache.blocked::no_targets            0                       # number of cycles access was blocked
system.cpu.itb_walker_cache.avg_blocked_cycles::no_mshrs          nan                       # average number of cycles each access was blocked
system.cpu.itb_walker_cache.avg_blocked_cycles::no_targets          nan                       # average number of cycles each access was blocked
system.cpu.itb_walker_cache.replacements            0                       # number of replacements
system.cpu.itb_walker_cache.tags.pwrStateResidencyTicks::UNDEFINED  38421810000                       # Cumulative time (in ticks) in various power states
system.cpu.itb_walker_cache.tags.tagsinuse            0                       # Cycle average of tags in use
system.cpu.itb_walker_cache.tags.total_refs            0                       # Total number of references to valid blocks.
system.cpu.itb_walker_cache.tags.sampled_refs            0                       # Sample count of references to valid blocks.
system.cpu.itb_walker_cache.tags.avg_refs          nan                       # Average number of references to valid blocks.
system.cpu.itb_walker_cache.tags.warmup_cycle            0                       # Cycle when the warmup percentage was hit.
system.cpu.itb_walker_cache.tags.tag_accesses            0                       # Number of tag accesses
system.cpu.itb_walker_cache.tags.data_accesses            0                       # Number of data accesses
system.cpu.itb.walker.pwrStateResidencyTicks::UNDEFINED  38421810000                       # Cumulative time (in ticks) in various power states
system.cpu.dtb_walker_cache.pwrStateResidencyTicks::UNDEFINED  38421810000                       # Cumulative time (in ticks) in various power states
system.cpu.dtb_walker_cache.blocked_cycles::no_mshrs            0                       # number of cycles access was blocked
system.cpu.dtb_walker_cache.blocked_cycles::no_targets            0                       # number of cycles access was blocked
system.cpu.dtb_walker_cache.blocked::no_mshrs            0                       # number of cycles access was blocked
system.cpu.dtb_walker_cache.blocked::no_targets            0                       # number of cycles access was blocked
system.cpu.dtb_walker_cache.avg_blocked_cycles::no_mshrs          nan                       # average number of cycles each access was blocked
system.cpu.dtb_walker_cache.avg_blocked_cycles::no_targets          nan                       # average number of cycles each access was blocked
system.cpu.dtb_walker_cache.replacements            0                       # number of replacements
system.cpu.dtb_walker_cache.tags.pwrStateResidencyTicks::UNDEFINED  38421810000                       # Cumulative time (in ticks) in various power states
system.cpu.dtb_walker_cache.tags.tagsinuse            0                       # Cycle average of tags in use
system.cpu.dtb_walker_cache.tags.total_refs            0                       # Total number of references to valid blocks.
system.cpu.dtb_walker_cache.tags.sampled_refs            0                       # Sample count of references to valid blocks.
system.cpu.dtb_walker_cache.tags.avg_refs          nan                       # Average number of references to valid blocks.
system.cpu.dtb_walker_cache.tags.warmup_cycle            0                       # Cycle when the warmup percentage was hit.
system.cpu.dtb_walker_cache.tags.tag_accesses            0                       # Number of tag accesses
system.cpu.dtb_walker_cache.tags.data_accesses            0                       # Number of data accesses
system.cpu.dcache.pwrStateResidencyTicks::UNDEFINED  38421810000                       # Cumulative time (in ticks) in various power states
system.cpu.dcache.demand_hits::.cpu.data     25641613                       # number of demand (read+write) hits
system.cpu.dcache.demand_hits::total         25641613                       # number of demand (read+write) hits
system.cpu.dcache.overall_hits::.cpu.data     25641640                       # number of overall hits
system.cpu.dcache.overall_hits::total        25641640                       # number of overall hits
system.cpu.dcache.demand_misses::.cpu.data       668348                       # number of demand (read+write) misses
system.cpu.dcache.demand_misses::total         668348                       # number of demand (read+write) misses
system.cpu.dcache.overall_misses::.cpu.data       671821                       # number of overall misses
system.cpu.dcache.overall_misses::total        671821                       # number of overall misses
system.cpu.dcache.demand_miss_latency::.cpu.data  14802928996                       # number of demand (read+write) miss cycles
system.cpu.dcache.demand_miss_latency::total  14802928996                       # number of demand (read+write) miss cycles
system.cpu.dcache.overall_miss_latency::.cpu.data  14802928996                       # number of overall miss cycles
system.cpu.dcache.overall_miss_latency::total  14802928996                       # number of overall miss cycles
system.cpu.dcache.demand_accesses::.cpu.data     26309961                       # number of demand (read+write) accesses
system.cpu.dcache.demand_accesses::total     26309961                       # number of demand (read+write) accesses
system.cpu.dcache.overall_accesses::.cpu.data     26313461                       # number of overall (read+write) accesses
system.cpu.dcache.overall_accesses::total     26313461                       # number of overall (read+write) accesses
system.cpu.dcache.demand_miss_rate::.cpu.data     0.025403                       # miss rate for demand accesses
system.cpu.dcache.demand_miss_rate::total     0.025403                       # miss rate for demand accesses
system.cpu.dcache.overall_miss_rate::.cpu.data     0.025531                       # miss rate for overall accesses
system.cpu.dcache.overall_miss_rate::total     0.025531                       # miss rate for overall accesses
system.cpu.dcache.demand_avg_miss_latency::.cpu.data 22148.534889                       # average overall miss latency
system.cpu.dcache.demand_avg_miss_latency::total 22148.534889                       # average overall miss latency
system.cpu.dcache.overall_avg_miss_latency::.cpu.data 22034.037334                       # average overall miss latency
system.cpu.dcache.overall_avg_miss_latency::total 22034.037334                       # average overall miss latency
system.cpu.dcache.blocked_cycles::no_mshrs        52366                       # number of cycles access was blocked
system.cpu.dcache.blocked_cycles::no_targets          222                       # number of cycles access was blocked
system.cpu.dcache.blocked::no_mshrs              2641                       # number of cycles access was blocked
system.cpu.dcache.blocked::no_targets               3                       # number of cycles access was blocked
system.cpu.dcache.avg_blocked_cycles::no_mshrs    19.828095                       # average number of cycles each access was blocked
system.cpu.dcache.avg_blocked_cycles::no_targets           74                       # average number of cycles each access was blocked
system.cpu.dcache.writebacks::.writebacks       231603                       # number of writebacks
system.cpu.dcache.writebacks::total            231603                       # number of writebacks
system.cpu.dcache.demand_mshr_hits::.cpu.data       427244                       # number of demand (read+write) MSHR hits
system.cpu.dcache.demand_mshr_hits::total       427244                       # number of demand (read+write) MSHR hits
system.cpu.dcache.overall_mshr_hits::.cpu.data       427244                       # number of overall MSHR hits
system.cpu.dcache.overall_mshr_hits::total       427244                       # number of overall MSHR hits
system.cpu.dcache.demand_mshr_misses::.cpu.data       241104                       # number of demand (read+write) MSHR misses
system.cpu.dcache.demand_mshr_misses::total       241104                       # number of demand (read+write) MSHR misses
system.cpu.dcache.overall_mshr_misses::.cpu.data       244577                       # number of overall MSHR misses
system.cpu.dcache.overall_mshr_misses::total       244577                       # number of overall MSHR misses
system.cpu.dcache.demand_mshr_miss_latency::.cpu.data   6805620996                       # number of demand (read+write) MSHR miss cycles
system.cpu.dcache.demand_mshr_miss_latency::total   6805620996                       # number of demand (read+write) MSHR miss cycles
system.cpu.dcache.overall_mshr_miss_latency::.cpu.data   7026674996                       # number of overall MSHR miss cycles
system.cpu.dcache.overall_mshr_miss_latency::total   7026674996                       # number of overall MSHR miss cycles
system.cpu.dcache.demand_mshr_miss_rate::.cpu.data     0.009164                       # mshr miss rate for demand accesses
system.cpu.dcache.demand_mshr_miss_rate::total     0.009164                       # mshr miss rate for demand accesses
system.cpu.dcache.overall_mshr_miss_rate::.cpu.data     0.009295                       # mshr miss rate for overall accesses
system.cpu.dcache.overall_mshr_miss_rate::total     0.009295                       # mshr miss rate for overall accesses
system.cpu.dcache.demand_avg_mshr_miss_latency::.cpu.data 28226.910362                       # average overall mshr miss latency
system.cpu.dcache.demand_avg_mshr_miss_latency::total 28226.910362                       # average overall mshr miss latency
system.cpu.dcache.overall_avg_mshr_miss_latency::.cpu.data 28729.909174                       # average overall mshr miss latency
system.cpu.dcache.overall_avg_mshr_miss_latency::total 28729.909174                       # average overall mshr miss latency
system.cpu.dcache.replacements                 243552                       # number of replacements
system.cpu.dcache.ReadReq_hits::.cpu.data     16617991                       # number of ReadReq hits
system.cpu.dcache.ReadReq_hits::total        16617991                       # number of ReadReq hits
system.cpu.dcache.ReadReq_misses::.cpu.data       645986                       # number of ReadReq misses
system.cpu.dcache.ReadReq_misses::total        645986                       # number of ReadReq misses
system.cpu.dcache.ReadReq_miss_latency::.cpu.data  13417527000                       # number of ReadReq miss cycles
system.cpu.dcache.ReadReq_miss_latency::total  13417527000                       # number of ReadReq miss cycles
system.cpu.dcache.ReadReq_accesses::.cpu.data     17263977                       # number of ReadReq accesses(hits+misses)
system.cpu.dcache.ReadReq_accesses::total     17263977                       # number of ReadReq accesses(hits+misses)
system.cpu.dcache.ReadReq_miss_rate::.cpu.data     0.037418                       # miss rate for ReadReq accesses
system.cpu.dcache.ReadReq_miss_rate::total     0.037418                       # miss rate for ReadReq accesses
system.cpu.dcache.ReadReq_avg_miss_latency::.cpu.data 20770.615772                       # average ReadReq miss latency
system.cpu.dcache.ReadReq_avg_miss_latency::total 20770.615772                       # average ReadReq miss latency
system.cpu.dcache.ReadReq_mshr_hits::.cpu.data       427125                       # number of ReadReq MSHR hits
system.cpu.dcache.ReadReq_mshr_hits::total       427125                       # number of ReadReq MSHR hits
system.cpu.dcache.ReadReq_mshr_misses::.cpu.data       218861                       # number of ReadReq MSHR misses
system.cpu.dcache.ReadReq_mshr_misses::total       218861                       # number of ReadReq MSHR misses
system.cpu.dcache.ReadReq_mshr_miss_latency::.cpu.data   5466656000                       # number of ReadReq MSHR miss cycles
system.cpu.dcache.ReadReq_mshr_miss_latency::total   5466656000                       # number of ReadReq MSHR miss cycles
system.cpu.dcache.ReadReq_mshr_miss_rate::.cpu.data     0.012677                       # mshr miss rate for ReadReq accesses
system.cpu.dcache.ReadReq_mshr_miss_rate::total     0.012677                       # mshr miss rate for ReadReq accesses
system.cpu.dcache.ReadReq_avg_mshr_miss_latency::.cpu.data 24977.753003                       # average ReadReq mshr miss latency
system.cpu.dcache.ReadReq_avg_mshr_miss_latency::total 24977.753003                       # average ReadReq mshr miss latency
system.cpu.dcache.WriteReq_hits::.cpu.data      9023622                       # number of WriteReq hits
system.cpu.dcache.WriteReq_hits::total        9023622                       # number of WriteReq hits
system.cpu.dcache.WriteReq_misses::.cpu.data        22362                       # number of WriteReq misses
system.cpu.dcache.WriteReq_misses::total        22362                       # number of WriteReq misses
system.cpu.dcache.WriteReq_miss_latency::.cpu.data   1385401996                       # number of WriteReq miss cycles
system.cpu.dcache.WriteReq_miss_latency::total   1385401996                       # number of WriteReq miss cycles
system.cpu.dcache.WriteReq_accesses::.cpu.data      9045984                       # number of WriteReq accesses(hits+misses)
system.cpu.dcache.WriteReq_accesses::total      9045984                       # number of WriteReq accesses(hits+misses)
system.cpu.dcache.WriteReq_miss_rate::.cpu.data     0.002472                       # miss rate for WriteReq accesses
system.cpu.dcache.WriteReq_miss_rate::total     0.002472                       # miss rate for WriteReq accesses
system.cpu.dcache.WriteReq_avg_miss_latency::.cpu.data 61953.402916                       # average WriteReq miss latency
system.cpu.dcache.WriteReq_avg_miss_latency::total 61953.402916                       # average WriteReq miss latency
system.cpu.dcache.WriteReq_mshr_hits::.cpu.data          119                       # number of WriteReq MSHR hits
system.cpu.dcache.WriteReq_mshr_hits::total          119                       # number of WriteReq MSHR hits
system.cpu.dcache.WriteReq_mshr_misses::.cpu.data        22243                       # number of WriteReq MSHR misses
system.cpu.dcache.WriteReq_mshr_misses::total        22243                       # number of WriteReq MSHR misses
system.cpu.dcache.WriteReq_mshr_miss_latency::.cpu.data   1338964996                       # number of WriteReq MSHR miss cycles
system.cpu.dcache.WriteReq_mshr_miss_latency::total   1338964996                       # number of WriteReq MSHR miss cycles
system.cpu.dcache.WriteReq_mshr_miss_rate::.cpu.data     0.002459                       # mshr miss rate for WriteReq accesses
system.cpu.dcache.WriteReq_mshr_miss_rate::total     0.002459                       # mshr miss rate for WriteReq accesses
system.cpu.dcache.WriteReq_avg_mshr_miss_latency::.cpu.data 60197.140494                       # average WriteReq mshr miss latency
system.cpu.dcache.WriteReq_avg_mshr_miss_latency::total 60197.140494                       # average WriteReq mshr miss latency
system.cpu.dcache.SoftPFReq_hits::.cpu.data           27                       # number of SoftPFReq hits
system.cpu.dcache.SoftPFReq_hits::total            27                       # number of SoftPFReq hits
system.cpu.dcache.SoftPFReq_misses::.cpu.data         3473                       # number of SoftPFReq misses
system.cpu.dcache.SoftPFReq_misses::total         3473                       # number of SoftPFReq misses
system.cpu.dcache.SoftPFReq_accesses::.cpu.data         3500                       # number of SoftPFReq accesses(hits+misses)
system.cpu.dcache.SoftPFReq_accesses::total         3500                       # number of SoftPFReq accesses(hits+misses)
system.cpu.dcache.SoftPFReq_miss_rate::.cpu.data     0.992286                       # miss rate for SoftPFReq accesses
system.cpu.dcache.SoftPFReq_miss_rate::total     0.992286                       # miss rate for SoftPFReq accesses
system.cpu.dcache.SoftPFReq_mshr_misses::.cpu.data         3473                       # number of SoftPFReq MSHR misses
system.cpu.dcache.SoftPFReq_mshr_misses::total         3473                       # number of SoftPFReq MSHR misses
system.cpu.dcache.SoftPFReq_mshr_miss_latency::.cpu.data    221054000                       # number of SoftPFReq MSHR miss cycles
system.cpu.dcache.SoftPFReq_mshr_miss_latency::total    221054000                       # number of SoftPFReq MSHR miss cycles
system.cpu.dcache.SoftPFReq_mshr_miss_rate::.cpu.data     0.992286                       # mshr miss rate for SoftPFReq accesses
system.cpu.dcache.SoftPFReq_mshr_miss_rate::total     0.992286                       # mshr miss rate for SoftPFReq accesses
system.cpu.dcache.SoftPFReq_avg_mshr_miss_latency::.cpu.data 63649.294558                       # average SoftPFReq mshr miss latency
system.cpu.dcache.SoftPFReq_avg_mshr_miss_latency::total 63649.294558                       # average SoftPFReq mshr miss latency
system.cpu.dcache.tags.pwrStateResidencyTicks::UNDEFINED  38421810000                       # Cumulative time (in ticks) in various power states
system.cpu.dcache.tags.tagsinuse          1022.123961                       # Cycle average of tags in use
system.cpu.dcache.tags.total_refs            25886217                       # Total number of references to valid blocks.
system.cpu.dcache.tags.sampled_refs            244576                       # Sample count of references to valid blocks.
system.cpu.dcache.tags.avg_refs            105.841199                       # Average number of references to valid blocks.
system.cpu.dcache.tags.warmup_cycle            223000                       # Cycle when the warmup percentage was hit.
system.cpu.dcache.tags.occ_blocks::.cpu.data  1022.123961                       # Average occupied blocks per requestor
system.cpu.dcache.tags.occ_percent::.cpu.data     0.998168                       # Average percentage of cache occupancy
system.cpu.dcache.tags.occ_percent::total     0.998168                       # Average percentage of cache occupancy
system.cpu.dcache.tags.occ_task_id_blocks::1024         1024                       # Occupied blocks per task id
system.cpu.dcache.tags.age_task_id_blocks_1024::0           59                       # Occupied blocks per task id
system.cpu.dcache.tags.age_task_id_blocks_1024::1          664                       # Occupied blocks per task id
system.cpu.dcache.tags.age_task_id_blocks_1024::2            4                       # Occupied blocks per task id
system.cpu.dcache.tags.age_task_id_blocks_1024::3           52                       # Occupied blocks per task id
system.cpu.dcache.tags.age_task_id_blocks_1024::4          245                       # Occupied blocks per task id
system.cpu.dcache.tags.occ_task_id_percent::1024            1                       # Percentage of cache occupancy per task id
system.cpu.dcache.tags.tag_accesses         210752264                       # Number of tag accesses
system.cpu.dcache.tags.data_accesses        210752264                       # Number of data accesses

---------- End Simulation Statistics   ----------
