
---------- Begin Simulation Statistics ----------
final_tick                                38776379000                       # Number of ticks from beginning of simulation (restored from checkpoints and never reset)
host_inst_rate                                 159795                       # Simulator instruction rate (inst/s)
host_mem_usage                                 842572                       # Number of bytes of host memory used
host_op_rate                                   268292                       # Simulator op (including micro ops) rate (op/s)
host_seconds                                   363.16                       # Real time elapsed on the host
host_tick_rate                              106774612                       # Simulator tick rate (ticks/s)
sim_freq                                 1000000000000                       # Frequency of simulated ticks
sim_insts                                    58031203                       # Number of instructions simulated
sim_ops                                      97433054                       # Number of ops (including micro ops) simulated
sim_seconds                                  0.038776                       # Number of seconds simulated
sim_ticks                                 38776379000                       # Number of ticks simulated
system.cpu.branchPred.BTBCorrect                    0                       # Number of correct BTB predictions (this stat may not work properly.
system.cpu.branchPred.BTBHitPct              0.000000                       # BTB Hit Percentage
system.cpu.branchPred.BTBHits                       0                       # Number of BTB hits
system.cpu.branchPred.BTBLookups              7191051                       # Number of BTB lookups
system.cpu.branchPred.RASInCorrect                 47                       # Number of incorrect RAS predictions.
system.cpu.branchPred.condIncorrect            406101                       # Number of conditional branches incorrect
system.cpu.branchPred.condPredicted           7401092                       # Number of conditional branches predicted
system.cpu.branchPred.indirectHits            4397140                       # Number of indirect target hits.
system.cpu.branchPred.indirectLookups         7191051                       # Number of indirect predictor lookups.
system.cpu.branchPred.indirectMisses          2793911                       # Number of indirect misses.
system.cpu.branchPred.lookups                 8360224                       # Number of BP lookups
system.cpu.branchPred.usedRAS                  470973                       # Number of times the RAS was used to get a target.
system.cpu.branchPredindirectMispredicted       260994                       # Number of mispredicted indirect branches.
system.cpu.cc_regfile_reads                  36432826                       # number of cc regfile reads
system.cpu.cc_regfile_writes                 27714442                       # number of cc regfile writes
system.cpu.commit.amos                              0                       # Number of atomic instructions committed
system.cpu.commit.branchMispredicts            406159                       # The number of times a branch was mispredicted
system.cpu.commit.branches                    6128620                       # Number of branches committed
system.cpu.commit.bw_lim_events               7026687                       # number cycles where commit BW limit reached
system.cpu.commit.commitNonSpecStalls             342                       # The number of times commit has been forced to stall to communicate backwards
system.cpu.commit.commitSquashedInsts        12083553                       # The number of squashed insts skipped by commit
system.cpu.commit.committedInsts             58031203                       # Number of instructions committed
system.cpu.commit.committedOps               97433054                       # Number of ops (including micro ops) committed
system.cpu.commit.committed_per_cycle::samples     36898732                       # Number of insts commited each cycle
system.cpu.commit.committed_per_cycle::mean     2.640553                       # Number of insts commited each cycle
system.cpu.commit.committed_per_cycle::stdev     3.067761                       # Number of insts commited each cycle
system.cpu.commit.committed_per_cycle::underflows            0      0.00%      0.00% # Number of insts commited each cycle
system.cpu.commit.committed_per_cycle::0     14507010     39.32%     39.32% # Number of insts commited each cycle
system.cpu.commit.committed_per_cycle::1      4461342     12.09%     51.41% # Number of insts commited each cycle
system.cpu.commit.committed_per_cycle::2      4422250     11.98%     63.39% # Number of insts commited each cycle
system.cpu.commit.committed_per_cycle::3      2809474      7.61%     71.01% # Number of insts commited each cycle
system.cpu.commit.committed_per_cycle::4      1191666      3.23%     74.23% # Number of insts commited each cycle
system.cpu.commit.committed_per_cycle::5       578551      1.57%     75.80% # Number of insts commited each cycle
system.cpu.commit.committed_per_cycle::6      1486389      4.03%     79.83% # Number of insts commited each cycle
system.cpu.commit.committed_per_cycle::7       415363      1.13%     80.96% # Number of insts commited each cycle
system.cpu.commit.committed_per_cycle::8      7026687     19.04%    100.00% # Number of insts commited each cycle
system.cpu.commit.committed_per_cycle::overflows            0      0.00%    100.00% # Number of insts commited each cycle
system.cpu.commit.committed_per_cycle::min_value            0                       # Number of insts commited each cycle
system.cpu.commit.committed_per_cycle::max_value            8                       # Number of insts commited each cycle
system.cpu.commit.committed_per_cycle::total     36898732                       # Number of insts commited each cycle
system.cpu.commit.fp_insts                   15257866                       # Number of committed floating point instructions.
system.cpu.commit.function_calls               331381                       # Number of function calls committed.
system.cpu.commit.int_insts                  88475678                       # Number of committed integer instructions.
system.cpu.commit.loads                      29041349                       # Number of loads committed
system.cpu.commit.membars                           0                       # Number of memory barriers committed
system.cpu.commit.op_class_0::No_OpClass       396158      0.41%      0.41% # Class of committed instruction
system.cpu.commit.op_class_0::IntAlu         49791704     51.10%     51.51% # Class of committed instruction
system.cpu.commit.op_class_0::IntMult           41115      0.04%     51.55% # Class of committed instruction
system.cpu.commit.op_class_0::IntDiv           555804      0.57%     52.12% # Class of committed instruction
system.cpu.commit.op_class_0::FloatAdd        4888605      5.02%     57.14% # Class of committed instruction
system.cpu.commit.op_class_0::FloatCmp              0      0.00%     57.14% # Class of committed instruction
system.cpu.commit.op_class_0::FloatCvt            240      0.00%     57.14% # Class of committed instruction
system.cpu.commit.op_class_0::FloatMult             0      0.00%     57.14% # Class of committed instruction
system.cpu.commit.op_class_0::FloatMultAcc            0      0.00%     57.14% # Class of committed instruction
system.cpu.commit.op_class_0::FloatDiv              0      0.00%     57.14% # Class of committed instruction
system.cpu.commit.op_class_0::FloatMisc             0      0.00%     57.14% # Class of committed instruction
system.cpu.commit.op_class_0::FloatSqrt             0      0.00%     57.14% # Class of committed instruction
system.cpu.commit.op_class_0::SimdAdd               0      0.00%     57.14% # Class of committed instruction
system.cpu.commit.op_class_0::SimdAddAcc            0      0.00%     57.14% # Class of committed instruction
system.cpu.commit.op_class_0::SimdAlu           55888      0.06%     57.20% # Class of committed instruction
system.cpu.commit.op_class_0::SimdCmp               0      0.00%     57.20% # Class of committed instruction
system.cpu.commit.op_class_0::SimdCvt           74006      0.08%     57.27% # Class of committed instruction
system.cpu.commit.op_class_0::SimdMisc         211704      0.22%     57.49% # Class of committed instruction
system.cpu.commit.op_class_0::SimdMult              0      0.00%     57.49% # Class of committed instruction
system.cpu.commit.op_class_0::SimdMultAcc            0      0.00%     57.49% # Class of committed instruction
system.cpu.commit.op_class_0::SimdShift             0      0.00%     57.49% # Class of committed instruction
system.cpu.commit.op_class_0::SimdShiftAcc            0      0.00%     57.49% # Class of committed instruction
system.cpu.commit.op_class_0::SimdDiv               0      0.00%     57.49% # Class of committed instruction
system.cpu.commit.op_class_0::SimdSqrt              0      0.00%     57.49% # Class of committed instruction
system.cpu.commit.op_class_0::SimdFloatAdd      1642100      1.69%     59.18% # Class of committed instruction
system.cpu.commit.op_class_0::SimdFloatAlu            0      0.00%     59.18% # Class of committed instruction
system.cpu.commit.op_class_0::SimdFloatCmp            0      0.00%     59.18% # Class of committed instruction
system.cpu.commit.op_class_0::SimdFloatCvt        23310      0.02%     59.20% # Class of committed instruction
system.cpu.commit.op_class_0::SimdFloatDiv        19110      0.02%     59.22% # Class of committed instruction
system.cpu.commit.op_class_0::SimdFloatMisc            0      0.00%     59.22% # Class of committed instruction
system.cpu.commit.op_class_0::SimdFloatMult      1646080      1.69%     60.91% # Class of committed instruction
system.cpu.commit.op_class_0::SimdFloatMultAcc            0      0.00%     60.91% # Class of committed instruction
system.cpu.commit.op_class_0::SimdFloatSqrt            0      0.00%     60.91% # Class of committed instruction
system.cpu.commit.op_class_0::SimdReduceAdd            0      0.00%     60.91% # Class of committed instruction
system.cpu.commit.op_class_0::SimdReduceAlu            0      0.00%     60.91% # Class of committed instruction
system.cpu.commit.op_class_0::SimdReduceCmp            0      0.00%     60.91% # Class of committed instruction
system.cpu.commit.op_class_0::SimdFloatReduceAdd            0      0.00%     60.91% # Class of committed instruction
system.cpu.commit.op_class_0::SimdFloatReduceCmp            0      0.00%     60.91% # Class of committed instruction
system.cpu.commit.op_class_0::SimdAes               0      0.00%     60.91% # Class of committed instruction
system.cpu.commit.op_class_0::SimdAesMix            0      0.00%     60.91% # Class of committed instruction
system.cpu.commit.op_class_0::SimdSha1Hash            0      0.00%     60.91% # Class of committed instruction
system.cpu.commit.op_class_0::SimdSha1Hash2            0      0.00%     60.91% # Class of committed instruction
system.cpu.commit.op_class_0::SimdSha256Hash            0      0.00%     60.91% # Class of committed instruction
system.cpu.commit.op_class_0::SimdSha256Hash2            0      0.00%     60.91% # Class of committed instruction
system.cpu.commit.op_class_0::SimdShaSigma2            0      0.00%     60.91% # Class of committed instruction
system.cpu.commit.op_class_0::SimdShaSigma3            0      0.00%     60.91% # Class of committed instruction
system.cpu.commit.op_class_0::SimdPredAlu            0      0.00%     60.91% # Class of committed instruction
system.cpu.commit.op_class_0::MemRead        24082189     24.72%     85.63% # Class of committed instruction
system.cpu.commit.op_class_0::MemWrite        7400535      7.60%     93.22% # Class of committed instruction
system.cpu.commit.op_class_0::FloatMemRead      4959160      5.09%     98.31% # Class of committed instruction
system.cpu.commit.op_class_0::FloatMemWrite      1645346      1.69%    100.00% # Class of committed instruction
system.cpu.commit.op_class_0::IprAccess             0      0.00%    100.00% # Class of committed instruction
system.cpu.commit.op_class_0::InstPrefetch            0      0.00%    100.00% # Class of committed instruction
system.cpu.commit.op_class_0::total          97433054                       # Class of committed instruction
system.cpu.commit.refs                       38087230                       # Number of memory references committed
system.cpu.commit.swp_count                         0                       # Number of s/w prefetches committed
system.cpu.commit.vec_insts                         0                       # Number of committed Vector instructions.
system.cpu.committedInsts                    58031203                       # Number of Instructions Simulated
system.cpu.committedOps                      97433054                       # Number of Ops (including micro ops) Simulated
system.cpu.cpi                               0.668199                       # CPI: Cycles Per Instruction
system.cpu.cpi_total                         0.668199                       # CPI: Total CPI of All Threads
system.cpu.decode.BlockedCycles              13211529                       # Number of cycles decode is blocked
system.cpu.decode.DecodedInsts              114858106                       # Number of instructions handled by decode
system.cpu.decode.IdleCycles                  8855034                       # Number of cycles decode is idle
system.cpu.decode.RunCycles                  12407228                       # Number of cycles decode is running
system.cpu.decode.SquashCycles                 410768                       # Number of cycles decode is squashing
system.cpu.decode.UnblockCycles               3788845                       # Number of cycles decode is unblocking
system.cpu.dtb.rdAccesses                    29793188                       # TLB accesses on read requests
system.cpu.dtb.rdMisses                         14846                       # TLB misses on read requests
system.cpu.dtb.wrAccesses                     9286706                       # TLB accesses on write requests
system.cpu.dtb.wrMisses                          3143                       # TLB misses on write requests
system.cpu.fetch.Branches                     8360224                       # Number of branches that fetch encountered
system.cpu.fetch.CacheLines                   7613571                       # Number of cache lines fetched
system.cpu.fetch.Cycles                      27073869                       # Number of cycles fetch has run and was not squashing or blocked
system.cpu.fetch.IcacheSquashes                138704                       # Number of outstanding Icache misses that were squashed
system.cpu.fetch.Insts                       68093877                       # Number of instructions fetch has processed
system.cpu.fetch.MiscStallCycles                  122                       # Number of cycles fetch has spent waiting on interrupts, or bad addresses, or out of MSHRs
system.cpu.fetch.PendingQuiesceStallCycles          438                       # Number of stall cycles due to pending quiesce instructions
system.cpu.fetch.PendingTrapStallCycles           617                       # Number of stall cycles due to pending traps
system.cpu.fetch.SquashCycles                  821536                       # Number of cycles fetch has spent squashing
system.cpu.fetch.branchRate                  0.215601                       # Number of branch fetches per cycle
system.cpu.fetch.icacheStallCycles           11187590                       # Number of cycles fetch is stalled on an Icache miss
system.cpu.fetch.predictedBranches            4868113                       # Number of branches that fetch has predicted taken
system.cpu.fetch.rate                        1.756066                       # Number of inst fetches per cycle
system.cpu.fetch.rateDist::samples           38673404                       # Number of instructions fetched each cycle (Total)
system.cpu.fetch.rateDist::mean              3.041202                       # Number of instructions fetched each cycle (Total)
system.cpu.fetch.rateDist::stdev             3.569467                       # Number of instructions fetched each cycle (Total)
system.cpu.fetch.rateDist::underflows               0      0.00%      0.00% # Number of instructions fetched each cycle (Total)
system.cpu.fetch.rateDist::0                 19166005     49.56%     49.56% # Number of instructions fetched each cycle (Total)
system.cpu.fetch.rateDist::1                  1911492      4.94%     54.50% # Number of instructions fetched each cycle (Total)
system.cpu.fetch.rateDist::2                  2270797      5.87%     60.37% # Number of instructions fetched each cycle (Total)
system.cpu.fetch.rateDist::3                   793656      2.05%     62.43% # Number of instructions fetched each cycle (Total)
system.cpu.fetch.rateDist::4                   517197      1.34%     63.76% # Number of instructions fetched each cycle (Total)
system.cpu.fetch.rateDist::5                  1206832      3.12%     66.88% # Number of instructions fetched each cycle (Total)
system.cpu.fetch.rateDist::6                   455626      1.18%     68.06% # Number of instructions fetched each cycle (Total)
system.cpu.fetch.rateDist::7                   871522      2.25%     70.31% # Number of instructions fetched each cycle (Total)
system.cpu.fetch.rateDist::8                 11480277     29.69%    100.00% # Number of instructions fetched each cycle (Total)
system.cpu.fetch.rateDist::overflows                0      0.00%    100.00% # Number of instructions fetched each cycle (Total)
system.cpu.fetch.rateDist::min_value                0                       # Number of instructions fetched each cycle (Total)
system.cpu.fetch.rateDist::max_value                8                       # Number of instructions fetched each cycle (Total)
system.cpu.fetch.rateDist::total             38673404                       # Number of instructions fetched each cycle (Total)
system.cpu.fp_regfile_reads                  12477309                       # number of floating regfile reads
system.cpu.fp_regfile_writes                 13570609                       # number of floating regfile writes
system.cpu.idleCycles                          102976                       # Total number of cycles that the CPU has spent unscheduled due to idling
system.cpu.iew.branchMispredicts               504994                       # Number of branch mispredicts detected at execute
system.cpu.iew.exec_branches                  6671619                       # Number of branches executed
system.cpu.iew.exec_nop                             0                       # number of nop insts executed
system.cpu.iew.exec_rate                     2.682033                       # Inst execution rate
system.cpu.iew.exec_refs                     39070641                       # number of memory reference insts executed
system.cpu.iew.exec_stores                    9286212                       # Number of stores executed
system.cpu.iew.exec_swp                             0                       # number of swp insts executed
system.cpu.iew.iewBlockCycles                 1402699                       # Number of cycles IEW is blocking
system.cpu.iew.iewDispLoadInsts              30354919                       # Number of dispatched load instructions
system.cpu.iew.iewDispNonSpecInsts              22280                       # Number of dispatched non-speculative instructions
system.cpu.iew.iewDispSquashedInsts             20092                       # Number of squashed instructions skipped by dispatch
system.cpu.iew.iewDispStoreInsts              9762273                       # Number of dispatched store instructions
system.cpu.iew.iewDispatchedInsts           109516328                       # Number of instructions dispatched to IQ
system.cpu.iew.iewExecLoadInsts              29784429                       # Number of load instructions executed
system.cpu.iew.iewExecSquashedInsts            927942                       # Number of squashed instructions skipped in execute
system.cpu.iew.iewExecutedInsts             103999524                       # Number of executed instructions
system.cpu.iew.iewIQFullEvents                   2113                       # Number of times the IQ has become full, causing a stall
system.cpu.iew.iewIdleCycles                        0                       # Number of cycles IEW is idle
system.cpu.iew.iewLSQFullEvents                 33397                       # Number of times the LSQ has become full, causing a stall
system.cpu.iew.iewSquashCycles                 410768                       # Number of cycles IEW is squashing
system.cpu.iew.iewUnblockCycles                 36362                       # Number of cycles IEW is unblocking
system.cpu.iew.lsq.thread0.blockedLoads             0                       # Number of blocked loads due to partial load-store forwarding
system.cpu.iew.lsq.thread0.cacheBlocked          2389                       # Number of times an access to memory failed due to the cache being blocked
system.cpu.iew.lsq.thread0.forwLoads         12490797                       # Number of loads that had data forwarded from stores
system.cpu.iew.lsq.thread0.ignoredResponses        11214                       # Number of memory responses ignored because the instruction is squashed
system.cpu.iew.lsq.thread0.invAddrLoads             0                       # Number of loads ignored due to an invalid address
system.cpu.iew.lsq.thread0.invAddrSwpfs             0                       # Number of software prefetches ignored due to an invalid address
system.cpu.iew.lsq.thread0.memOrderViolation         5920                       # Number of memory ordering violations
system.cpu.iew.lsq.thread0.rescheduledLoads          787                       # Number of loads that were rescheduled
system.cpu.iew.lsq.thread0.squashedLoads      1313570                       # Number of loads squashed
system.cpu.iew.lsq.thread0.squashedStores       716392                       # Number of stores squashed
system.cpu.iew.memOrderViolationEvents           5920                       # Number of memory order violations
system.cpu.iew.predictedNotTakenIncorrect       418580                       # Number of branches that were predicted not taken incorrectly
system.cpu.iew.predictedTakenIncorrect          86414                       # Number of branches that were predicted taken incorrectly
system.cpu.iew.wb_consumers                 105615692                       # num instructions consuming a value
system.cpu.iew.wb_count                     103701559                       # cumulative count of insts written-back
system.cpu.iew.wb_fanout                     0.726353                       # average fanout of values written-back
system.cpu.iew.wb_producers                  76714291                       # num instructions producing a value
system.cpu.iew.wb_rate                       2.674349                       # insts written-back per cycle
system.cpu.iew.wb_sent                      103816041                       # cumulative count of insts sent to commit
system.cpu.int_regfile_reads                157777352                       # number of integer regfile reads
system.cpu.int_regfile_writes                75142301                       # number of integer regfile writes
system.cpu.ipc                               1.496561                       # IPC: Instructions Per Cycle
system.cpu.ipc_total                         1.496561                       # IPC: Total IPC of All Threads
system.cpu.iq.FU_type_0::No_OpClass            568649      0.54%      0.54% # Type of FU issued
system.cpu.iq.FU_type_0::IntAlu              55780493     53.16%     53.70% # Type of FU issued
system.cpu.iq.FU_type_0::IntMult                41479      0.04%     53.74% # Type of FU issued
system.cpu.iq.FU_type_0::IntDiv                589626      0.56%     54.30% # Type of FU issued
system.cpu.iq.FU_type_0::FloatAdd             4914597      4.68%     58.99% # Type of FU issued
system.cpu.iq.FU_type_0::FloatCmp                   0      0.00%     58.99% # Type of FU issued
system.cpu.iq.FU_type_0::FloatCvt                2610      0.00%     58.99% # Type of FU issued
system.cpu.iq.FU_type_0::FloatMult                  0      0.00%     58.99% # Type of FU issued
system.cpu.iq.FU_type_0::FloatMultAcc               0      0.00%     58.99% # Type of FU issued
system.cpu.iq.FU_type_0::FloatDiv                   0      0.00%     58.99% # Type of FU issued
system.cpu.iq.FU_type_0::FloatMisc                  0      0.00%     58.99% # Type of FU issued
system.cpu.iq.FU_type_0::FloatSqrt                  0      0.00%     58.99% # Type of FU issued
system.cpu.iq.FU_type_0::SimdAdd                    0      0.00%     58.99% # Type of FU issued
system.cpu.iq.FU_type_0::SimdAddAcc                 0      0.00%     58.99% # Type of FU issued
system.cpu.iq.FU_type_0::SimdAlu                58514      0.06%     59.05% # Type of FU issued
system.cpu.iq.FU_type_0::SimdCmp                    0      0.00%     59.05% # Type of FU issued
system.cpu.iq.FU_type_0::SimdCvt                79669      0.08%     59.12% # Type of FU issued
system.cpu.iq.FU_type_0::SimdMisc              217140      0.21%     59.33% # Type of FU issued
system.cpu.iq.FU_type_0::SimdMult                   0      0.00%     59.33% # Type of FU issued
system.cpu.iq.FU_type_0::SimdMultAcc                0      0.00%     59.33% # Type of FU issued
system.cpu.iq.FU_type_0::SimdShift                  0      0.00%     59.33% # Type of FU issued
system.cpu.iq.FU_type_0::SimdShiftAcc               0      0.00%     59.33% # Type of FU issued
system.cpu.iq.FU_type_0::SimdDiv                    0      0.00%     59.33% # Type of FU issued
system.cpu.iq.FU_type_0::SimdSqrt                   0      0.00%     59.33% # Type of FU issued
system.cpu.iq.FU_type_0::SimdFloatAdd         1642324      1.57%     60.89% # Type of FU issued
system.cpu.iq.FU_type_0::SimdFloatAlu               0      0.00%     60.89% # Type of FU issued
system.cpu.iq.FU_type_0::SimdFloatCmp               0      0.00%     60.89% # Type of FU issued
system.cpu.iq.FU_type_0::SimdFloatCvt           23395      0.02%     60.92% # Type of FU issued
system.cpu.iq.FU_type_0::SimdFloatDiv           19212      0.02%     60.94% # Type of FU issued
system.cpu.iq.FU_type_0::SimdFloatMisc              0      0.00%     60.94% # Type of FU issued
system.cpu.iq.FU_type_0::SimdFloatMult        1646190      1.57%     62.50% # Type of FU issued
system.cpu.iq.FU_type_0::SimdFloatMultAcc            0      0.00%     62.50% # Type of FU issued
system.cpu.iq.FU_type_0::SimdFloatSqrt              0      0.00%     62.50% # Type of FU issued
system.cpu.iq.FU_type_0::SimdReduceAdd              0      0.00%     62.50% # Type of FU issued
system.cpu.iq.FU_type_0::SimdReduceAlu              0      0.00%     62.50% # Type of FU issued
system.cpu.iq.FU_type_0::SimdReduceCmp              0      0.00%     62.50% # Type of FU issued
system.cpu.iq.FU_type_0::SimdFloatReduceAdd            0      0.00%     62.50% # Type of FU issued
system.cpu.iq.FU_type_0::SimdFloatReduceCmp            0      0.00%     62.50% # Type of FU issued
system.cpu.iq.FU_type_0::SimdAes                    0      0.00%     62.50% # Type of FU issued
system.cpu.iq.FU_type_0::SimdAesMix                 0      0.00%     62.50% # Type of FU issued
system.cpu.iq.FU_type_0::SimdSha1Hash               0      0.00%     62.50% # Type of FU issued
system.cpu.iq.FU_type_0::SimdSha1Hash2              0      0.00%     62.50% # Type of FU issued
system.cpu.iq.FU_type_0::SimdSha256Hash             0      0.00%     62.50% # Type of FU issued
system.cpu.iq.FU_type_0::SimdSha256Hash2            0      0.00%     62.50% # Type of FU issued
system.cpu.iq.FU_type_0::SimdShaSigma2              0      0.00%     62.50% # Type of FU issued
system.cpu.iq.FU_type_0::SimdShaSigma3              0      0.00%     62.50% # Type of FU issued
system.cpu.iq.FU_type_0::SimdPredAlu                0      0.00%     62.50% # Type of FU issued
system.cpu.iq.FU_type_0::MemRead             24981239     23.81%     86.31% # Type of FU issued
system.cpu.iq.FU_type_0::MemWrite             7727999      7.37%     93.68% # Type of FU issued
system.cpu.iq.FU_type_0::FloatMemRead         4987507      4.75%     98.43% # Type of FU issued
system.cpu.iq.FU_type_0::FloatMemWrite        1646823      1.57%    100.00% # Type of FU issued
system.cpu.iq.FU_type_0::IprAccess                  0      0.00%    100.00% # Type of FU issued
system.cpu.iq.FU_type_0::InstPrefetch               0      0.00%    100.00% # Type of FU issued
system.cpu.iq.FU_type_0::total              104927466                       # Type of FU issued
system.cpu.iq.fp_alu_accesses                15334074                       # Number of floating point alu accesses
system.cpu.iq.fp_inst_queue_reads            30666329                       # Number of floating instruction queue reads
system.cpu.iq.fp_inst_queue_wakeup_accesses     15306287                       # Number of floating instruction queue wakeup accesses
system.cpu.iq.fp_inst_queue_writes           15541682                       # Number of floating instruction queue writes
system.cpu.iq.fu_busy_cnt                     1921901                       # FU busy when requested
system.cpu.iq.fu_busy_rate                   0.018316                       # FU busy rate (busy events/executed inst)
system.cpu.iq.fu_full::No_OpClass                   0      0.00%      0.00% # attempts to use FU when none available
system.cpu.iq.fu_full::IntAlu                  856732     44.58%     44.58% # attempts to use FU when none available
system.cpu.iq.fu_full::IntMult                      0      0.00%     44.58% # attempts to use FU when none available
system.cpu.iq.fu_full::IntDiv                       0      0.00%     44.58% # attempts to use FU when none available
system.cpu.iq.fu_full::FloatAdd                     0      0.00%     44.58% # attempts to use FU when none available
system.cpu.iq.fu_full::FloatCmp                     0      0.00%     44.58% # attempts to use FU when none available
system.cpu.iq.fu_full::FloatCvt                     3      0.00%     44.58% # attempts to use FU when none available
system.cpu.iq.fu_full::FloatMult                    0      0.00%     44.58% # attempts to use FU when none available
system.cpu.iq.fu_full::FloatMultAcc                 0      0.00%     44.58% # attempts to use FU when none available
system.cpu.iq.fu_full::FloatDiv                     0      0.00%     44.58% # attempts to use FU when none available
system.cpu.iq.fu_full::FloatMisc                    0      0.00%     44.58% # attempts to use FU when none available
system.cpu.iq.fu_full::FloatSqrt                    0      0.00%     44.58% # attempts to use FU when none available
system.cpu.iq.fu_full::SimdAdd                      0      0.00%     44.58% # attempts to use FU when none available
system.cpu.iq.fu_full::SimdAddAcc                   0      0.00%     44.58% # attempts to use FU when none available
system.cpu.iq.fu_full::SimdAlu                     35      0.00%     44.58% # attempts to use FU when none available
system.cpu.iq.fu_full::SimdCmp                      0      0.00%     44.58% # attempts to use FU when none available
system.cpu.iq.fu_full::SimdCvt                      4      0.00%     44.58% # attempts to use FU when none available
system.cpu.iq.fu_full::SimdMisc                    78      0.00%     44.58% # attempts to use FU when none available
system.cpu.iq.fu_full::SimdMult                     0      0.00%     44.58% # attempts to use FU when none available
system.cpu.iq.fu_full::SimdMultAcc                  0      0.00%     44.58% # attempts to use FU when none available
system.cpu.iq.fu_full::SimdShift                    0      0.00%     44.58% # attempts to use FU when none available
system.cpu.iq.fu_full::SimdShiftAcc                 0      0.00%     44.58% # attempts to use FU when none available
system.cpu.iq.fu_full::SimdDiv                      0      0.00%     44.58% # attempts to use FU when none available
system.cpu.iq.fu_full::SimdSqrt                     0      0.00%     44.58% # attempts to use FU when none available
system.cpu.iq.fu_full::SimdFloatAdd                 0      0.00%     44.58% # attempts to use FU when none available
system.cpu.iq.fu_full::SimdFloatAlu                 0      0.00%     44.58% # attempts to use FU when none available
system.cpu.iq.fu_full::SimdFloatCmp                 0      0.00%     44.58% # attempts to use FU when none available
system.cpu.iq.fu_full::SimdFloatCvt                 0      0.00%     44.58% # attempts to use FU when none available
system.cpu.iq.fu_full::SimdFloatDiv                 0      0.00%     44.58% # attempts to use FU when none available
system.cpu.iq.fu_full::SimdFloatMisc                0      0.00%     44.58% # attempts to use FU when none available
system.cpu.iq.fu_full::SimdFloatMult                0      0.00%     44.58% # attempts to use FU when none available
system.cpu.iq.fu_full::SimdFloatMultAcc             0      0.00%     44.58% # attempts to use FU when none available
system.cpu.iq.fu_full::SimdFloatSqrt                0      0.00%     44.58% # attempts to use FU when none available
system.cpu.iq.fu_full::SimdReduceAdd                0      0.00%     44.58% # attempts to use FU when none available
system.cpu.iq.fu_full::SimdReduceAlu                0      0.00%     44.58% # attempts to use FU when none available
system.cpu.iq.fu_full::SimdReduceCmp                0      0.00%     44.58% # attempts to use FU when none available
system.cpu.iq.fu_full::SimdFloatReduceAdd            0      0.00%     44.58% # attempts to use FU when none available
system.cpu.iq.fu_full::SimdFloatReduceCmp            0      0.00%     44.58% # attempts to use FU when none available
system.cpu.iq.fu_full::SimdAes                      0      0.00%     44.58% # attempts to use FU when none available
system.cpu.iq.fu_full::SimdAesMix                   0      0.00%     44.58% # attempts to use FU when none available
system.cpu.iq.fu_full::SimdSha1Hash                 0      0.00%     44.58% # attempts to use FU when none available
system.cpu.iq.fu_full::SimdSha1Hash2                0      0.00%     44.58% # attempts to use FU when none available
system.cpu.iq.fu_full::SimdSha256Hash               0      0.00%     44.58% # attempts to use FU when none available
system.cpu.iq.fu_full::SimdSha256Hash2              0      0.00%     44.58% # attempts to use FU when none available
system.cpu.iq.fu_full::SimdShaSigma2                0      0.00%     44.58% # attempts to use FU when none available
system.cpu.iq.fu_full::SimdShaSigma3                0      0.00%     44.58% # attempts to use FU when none available
system.cpu.iq.fu_full::SimdPredAlu                  0      0.00%     44.58% # attempts to use FU when none available
system.cpu.iq.fu_full::MemRead                1048595     54.56%     99.14% # attempts to use FU when none available
system.cpu.iq.fu_full::MemWrite                 14369      0.75%     99.89% # attempts to use FU when none available
system.cpu.iq.fu_full::FloatMemRead              1247      0.06%     99.96% # attempts to use FU when none available
system.cpu.iq.fu_full::FloatMemWrite              838      0.04%    100.00% # attempts to use FU when none available
system.cpu.iq.fu_full::IprAccess                    0      0.00%    100.00% # attempts to use FU when none available
system.cpu.iq.fu_full::InstPrefetch                 0      0.00%    100.00% # attempts to use FU when none available
system.cpu.iq.int_alu_accesses               90946644                       # Number of integer alu accesses
system.cpu.iq.int_inst_queue_reads          219915038                       # Number of integer instruction queue reads
system.cpu.iq.int_inst_queue_wakeup_accesses     88395272                       # Number of integer instruction queue wakeup accesses
system.cpu.iq.int_inst_queue_writes         106063559                       # Number of integer instruction queue writes
system.cpu.iq.iqInstsAdded                  109450508                       # Number of instructions added to the IQ (excludes non-spec)
system.cpu.iq.iqInstsIssued                 104927466                       # Number of instructions issued
system.cpu.iq.iqNonSpecInstsAdded               65820                       # Number of non-speculative instructions added to the IQ
system.cpu.iq.iqSquashedInstsExamined        12083273                       # Number of squashed instructions iterated over during squash; mainly for profiling
system.cpu.iq.iqSquashedInstsIssued            131130                       # Number of squashed instructions issued
system.cpu.iq.iqSquashedNonSpecRemoved          65478                       # Number of squashed non-spec instructions that were removed
system.cpu.iq.iqSquashedOperandsExamined     19890115                       # Number of squashed operands that are examined and possibly removed from graph
system.cpu.iq.issued_per_cycle::samples      38673404                       # Number of insts issued each cycle
system.cpu.iq.issued_per_cycle::mean         2.713169                       # Number of insts issued each cycle
system.cpu.iq.issued_per_cycle::stdev        2.283815                       # Number of insts issued each cycle
system.cpu.iq.issued_per_cycle::underflows            0      0.00%      0.00% # Number of insts issued each cycle
system.cpu.iq.issued_per_cycle::0             9566605     24.74%     24.74% # Number of insts issued each cycle
system.cpu.iq.issued_per_cycle::1             4826340     12.48%     37.22% # Number of insts issued each cycle
system.cpu.iq.issued_per_cycle::2             5295625     13.69%     50.91% # Number of insts issued each cycle
system.cpu.iq.issued_per_cycle::3             4614320     11.93%     62.84% # Number of insts issued each cycle
system.cpu.iq.issued_per_cycle::4             4740443     12.26%     75.10% # Number of insts issued each cycle
system.cpu.iq.issued_per_cycle::5             4318245     11.17%     86.26% # Number of insts issued each cycle
system.cpu.iq.issued_per_cycle::6             2905833      7.51%     93.78% # Number of insts issued each cycle
system.cpu.iq.issued_per_cycle::7             1569023      4.06%     97.84% # Number of insts issued each cycle
system.cpu.iq.issued_per_cycle::8              836970      2.16%    100.00% # Number of insts issued each cycle
system.cpu.iq.issued_per_cycle::overflows            0      0.00%    100.00% # Number of insts issued each cycle
system.cpu.iq.issued_per_cycle::min_value            0                       # Number of insts issued each cycle
system.cpu.iq.issued_per_cycle::max_value            8                       # Number of insts issued each cycle
system.cpu.iq.issued_per_cycle::total        38673404                       # Number of insts issued each cycle
system.cpu.iq.rate                           2.705963                       # Inst issue rate
system.cpu.iq.vec_alu_accesses                      0                       # Number of vector alu accesses
system.cpu.iq.vec_inst_queue_reads                  0                       # Number of vector instruction queue reads
system.cpu.iq.vec_inst_queue_wakeup_accesses            0                       # Number of vector instruction queue wakeup accesses
system.cpu.iq.vec_inst_queue_writes                 0                       # Number of vector instruction queue writes
system.cpu.itb.rdAccesses                           0                       # TLB accesses on read requests
system.cpu.itb.rdMisses                             0                       # TLB misses on read requests
system.cpu.itb.wrAccesses                     7613682                       # TLB accesses on write requests
system.cpu.itb.wrMisses                           269                       # TLB misses on write requests
system.cpu.memDep0.conflictingLoads          11569162                       # Number of conflicting loads.
system.cpu.memDep0.conflictingStores          5394203                       # Number of conflicting stores.
system.cpu.memDep0.insertedLoads             30354919                       # Number of loads inserted to the mem dependence unit.
system.cpu.memDep0.insertedStores             9762273                       # Number of stores inserted to the mem dependence unit.
system.cpu.misc_regfile_reads                52399581                       # number of misc regfile reads
system.cpu.misc_regfile_writes                    143                       # number of misc regfile writes
system.cpu.numCycles                         38776380                       # number of cpu cycles simulated
system.cpu.numWorkItemsCompleted                    0                       # number of work items this cpu completed
system.cpu.numWorkItemsStarted                      0                       # number of work items this cpu started
system.cpu.rename.BlockCycles                 1473930                       # Number of cycles rename is blocking
system.cpu.rename.CommittedMaps             109139378                       # Number of HB maps that are committed
system.cpu.rename.IQFullEvents                 332281                       # Number of times rename has blocked due to IQ full
system.cpu.rename.IdleCycles                 10435534                       # Number of cycles rename is idle
system.cpu.rename.LQFullEvents                9276242                       # Number of times rename has blocked due to LQ full
system.cpu.rename.ROBFullEvents                  5559                       # Number of times rename has blocked due to ROB full
system.cpu.rename.RenameLookups             287450510                       # Number of register rename lookups that rename has made
system.cpu.rename.RenamedInsts              113076737                       # Number of instructions processed by rename
system.cpu.rename.RenamedOperands           127783004                       # Number of destination operands rename has renamed
system.cpu.rename.RunCycles                  14546050                       # Number of cycles rename is running
system.cpu.rename.SQFullEvents                1292217                       # Number of times rename has blocked due to SQ full
system.cpu.rename.SquashCycles                 410768                       # Number of cycles rename is squashing
system.cpu.rename.UnblockCycles              11797140                       # Number of cycles rename is unblocking
system.cpu.rename.UndoneMaps                 18643626                       # Number of HB maps that are undone due to squashing
system.cpu.rename.fp_rename_lookups          12617098                       # Number of floating rename lookups
system.cpu.rename.int_rename_lookups        174924259                       # Number of integer rename lookups
system.cpu.rename.serializeStallCycles           9982                       # count of cycles rename stalled for serializing inst
system.cpu.rename.serializingInsts                761                       # count of serializing insts renamed
system.cpu.rename.skidInsts                  18285038                       # count of insts added to the skid buffer
system.cpu.rename.tempSerializingInsts            813                       # count of temporary serializing insts renamed
system.cpu.rob.rob_reads                    139388652                       # The number of ROB reads
system.cpu.rob.rob_writes                   220832395                       # The number of ROB writes
system.cpu.timesIdled                           33722                       # Number of times that the entire CPU went into an idle state and unscheduled itself
system.cpu.workload.numSyscalls                   203                       # Number of system calls
system.membus.snoop_filter.hit_multi_requests            0                       # Number of requests hitting in the snoop filter with multiple (>1) holders of the requested data.
system.membus.snoop_filter.hit_multi_snoops            0                       # Number of snoops hitting in the snoop filter with multiple (>1) holders of the requested data.
system.membus.snoop_filter.hit_single_requests            0                       # Number of requests hitting in the snoop filter with a single holder of the requested data.
system.membus.snoop_filter.hit_single_snoops            0                       # Number of snoops hitting in the snoop filter with a single holder of the requested data.
system.membus.snoop_filter.tot_requests         16966                       # Total number of requests made to the snoop filter.
system.membus.snoop_filter.tot_snoops               0                       # Total number of snoops made to the snoop filter.
system.tol2bus.snoop_filter.hit_multi_requests          131                       # Number of requests hitting in the snoop filter with multiple (>1) holders of the requested data.
system.tol2bus.snoop_filter.hit_multi_snoops            0                       # Number of snoops hitting in the snoop filter with multiple (>1) holders of the requested data.
system.tol2bus.snoop_filter.hit_single_requests       420063                       # Number of requests hitting in the snoop filter with a single holder of the requested data.
system.tol2bus.snoop_filter.hit_single_snoops            0                       # Number of snoops hitting in the snoop filter with a single holder of the requested data.
system.tol2bus.snoop_filter.tot_requests       842115                       # Total number of requests made to the snoop filter.
system.tol2bus.snoop_filter.tot_snoops              0                       # Total number of snoops made to the snoop filter.
system.membus.pwrStateResidencyTicks::UNDEFINED  38776379000                       # Cumulative time (in ticks) in various power states
system.membus.trans_dist::ReadResp               6070                       # Transaction distribution
system.membus.trans_dist::ReadExReq             10896                       # Transaction distribution
system.membus.trans_dist::ReadExResp            10896                       # Transaction distribution
system.membus.trans_dist::ReadSharedReq          6070                       # Transaction distribution
system.membus.pkt_count_system.l2.mem_side::system.mem_ctrls.port        33932                       # Packet count per connected master and slave (bytes)
system.membus.pkt_count_system.l2.mem_side::total        33932                       # Packet count per connected master and slave (bytes)
system.membus.pkt_count::total                  33932                       # Packet count per connected master and slave (bytes)
system.membus.pkt_size_system.l2.mem_side::system.mem_ctrls.port      1085824                       # Cumulative packet size per connected master and slave (bytes)
system.membus.pkt_size_system.l2.mem_side::total      1085824                       # Cumulative packet size per connected master and slave (bytes)
system.membus.pkt_size::total                 1085824                       # Cumulative packet size per connected master and slave (bytes)
system.membus.snoops                                0                       # Total snoops (count)
system.membus.snoopTraffic                          0                       # Total snoop traffic (bytes)
system.membus.snoop_fanout::samples             16966                       # Request fanout histogram
system.membus.snoop_fanout::mean                    0                       # Request fanout histogram
system.membus.snoop_fanout::stdev                   0                       # Request fanout histogram
system.membus.snoop_fanout::underflows              0      0.00%      0.00% # Request fanout histogram
system.membus.snoop_fanout::0                   16966    100.00%    100.00% # Request fanout histogram
system.membus.snoop_fanout::1                       0      0.00%    100.00% # Request fanout histogram
system.membus.snoop_fanout::overflows               0      0.00%    100.00% # Request fanout histogram
system.membus.snoop_fanout::min_value               0                       # Request fanout histogram
system.membus.snoop_fanout::max_value               0                       # Request fanout histogram
system.membus.snoop_fanout::total               16966                       # Request fanout histogram
system.membus.reqLayer2.occupancy            16966000                       # Layer occupancy (ticks)
system.membus.reqLayer2.utilization               0.0                       # Layer utilization (%)
system.membus.respLayer1.occupancy           89444500                       # Layer occupancy (ticks)
system.membus.respLayer1.utilization              0.2                       # Layer utilization (%)
system.tol2bus.pwrStateResidencyTicks::UNDEFINED  38776379000                       # Cumulative time (in ticks) in various power states
system.tol2bus.trans_dist::ReadResp            393519                       # Transaction distribution
system.tol2bus.trans_dist::WritebackDirty       247378                       # Transaction distribution
system.tol2bus.trans_dist::WritebackClean       159248                       # Transaction distribution
system.tol2bus.trans_dist::CleanEvict           13434                       # Transaction distribution
system.tol2bus.trans_dist::ReadExReq            28535                       # Transaction distribution
system.tol2bus.trans_dist::ReadExResp           28535                       # Transaction distribution
system.tol2bus.trans_dist::ReadCleanReq        160219                       # Transaction distribution
system.tol2bus.trans_dist::ReadSharedReq       233301                       # Transaction distribution
system.tol2bus.pkt_count_system.cpu.icache.mem_side::system.l2.cpu_side       479685                       # Packet count per connected master and slave (bytes)
system.tol2bus.pkt_count_system.cpu.dcache.mem_side::system.l2.cpu_side       784484                       # Packet count per connected master and slave (bytes)
system.tol2bus.pkt_count::total               1264169                       # Packet count per connected master and slave (bytes)
system.tol2bus.pkt_size_system.cpu.icache.mem_side::system.l2.cpu_side     20445824                       # Cumulative packet size per connected master and slave (bytes)
system.tol2bus.pkt_size_system.cpu.dcache.mem_side::system.l2.cpu_side     32589696                       # Cumulative packet size per connected master and slave (bytes)
system.tol2bus.pkt_size::total               53035520                       # Cumulative packet size per connected master and slave (bytes)
system.tol2bus.snoops                               0                       # Total snoops (count)
system.tol2bus.snoopTraffic                         0                       # Total snoop traffic (bytes)
system.tol2bus.snoop_fanout::samples           422055                       # Request fanout histogram
system.tol2bus.snoop_fanout::mean            0.000317                       # Request fanout histogram
system.tol2bus.snoop_fanout::stdev           0.017816                       # Request fanout histogram
system.tol2bus.snoop_fanout::underflows             0      0.00%      0.00% # Request fanout histogram
system.tol2bus.snoop_fanout::0                 421921     99.97%     99.97% # Request fanout histogram
system.tol2bus.snoop_fanout::1                    134      0.03%    100.00% # Request fanout histogram
system.tol2bus.snoop_fanout::2                      0      0.00%    100.00% # Request fanout histogram
system.tol2bus.snoop_fanout::3                      0      0.00%    100.00% # Request fanout histogram
system.tol2bus.snoop_fanout::4                      0      0.00%    100.00% # Request fanout histogram
system.tol2bus.snoop_fanout::overflows              0      0.00%    100.00% # Request fanout histogram
system.tol2bus.snoop_fanout::min_value              0                       # Request fanout histogram
system.tol2bus.snoop_fanout::max_value              1                       # Request fanout histogram
system.tol2bus.snoop_fanout::total             422055                       # Request fanout histogram
system.tol2bus.reqLayer0.occupancy         1655367000                       # Layer occupancy (ticks)
system.tol2bus.reqLayer0.utilization              4.3                       # Layer utilization (%)
system.tol2bus.respLayer1.occupancy         785510997                       # Layer occupancy (ticks)
system.tol2bus.respLayer1.utilization             2.0                       # Layer utilization (%)
system.tol2bus.respLayer0.occupancy         480660993                       # Layer occupancy (ticks)
system.tol2bus.respLayer0.utilization             1.2                       # Layer utilization (%)
system.voltage_domain.voltage                       1                       # Voltage in Volts
system.clk_domain.clock                          1000                       # Clock period in ticks
system.l2.pwrStateResidencyTicks::UNDEFINED  38776379000                       # Cumulative time (in ticks) in various power states
system.l2.demand_hits::.cpu.inst               158501                       # number of demand (read+write) hits
system.l2.demand_hits::.cpu.data               246586                       # number of demand (read+write) hits
system.l2.demand_hits::total                   405087                       # number of demand (read+write) hits
system.l2.overall_hits::.cpu.inst              158501                       # number of overall hits
system.l2.overall_hits::.cpu.data              246586                       # number of overall hits
system.l2.overall_hits::total                  405087                       # number of overall hits
system.l2.demand_misses::.cpu.inst               1718                       # number of demand (read+write) misses
system.l2.demand_misses::.cpu.data              15250                       # number of demand (read+write) misses
system.l2.demand_misses::total                  16968                       # number of demand (read+write) misses
system.l2.overall_misses::.cpu.inst              1718                       # number of overall misses
system.l2.overall_misses::.cpu.data             15250                       # number of overall misses
system.l2.overall_misses::total                 16968                       # number of overall misses
system.l2.demand_miss_latency::.cpu.inst    169133000                       # number of demand (read+write) miss cycles
system.l2.demand_miss_latency::.cpu.data   1465296000                       # number of demand (read+write) miss cycles
system.l2.demand_miss_latency::total       1634429000                       # number of demand (read+write) miss cycles
system.l2.overall_miss_latency::.cpu.inst    169133000                       # number of overall miss cycles
system.l2.overall_miss_latency::.cpu.data   1465296000                       # number of overall miss cycles
system.l2.overall_miss_latency::total      1634429000                       # number of overall miss cycles
system.l2.demand_accesses::.cpu.inst           160219                       # number of demand (read+write) accesses
system.l2.demand_accesses::.cpu.data           261836                       # number of demand (read+write) accesses
system.l2.demand_accesses::total               422055                       # number of demand (read+write) accesses
system.l2.overall_accesses::.cpu.inst          160219                       # number of overall (read+write) accesses
system.l2.overall_accesses::.cpu.data          261836                       # number of overall (read+write) accesses
system.l2.overall_accesses::total              422055                       # number of overall (read+write) accesses
system.l2.demand_miss_rate::.cpu.inst        0.010723                       # miss rate for demand accesses
system.l2.demand_miss_rate::.cpu.data        0.058243                       # miss rate for demand accesses
system.l2.demand_miss_rate::total            0.040203                       # miss rate for demand accesses
system.l2.overall_miss_rate::.cpu.inst       0.010723                       # miss rate for overall accesses
system.l2.overall_miss_rate::.cpu.data       0.058243                       # miss rate for overall accesses
system.l2.overall_miss_rate::total           0.040203                       # miss rate for overall accesses
system.l2.demand_avg_miss_latency::.cpu.inst 98447.613504                       # average overall miss latency
system.l2.demand_avg_miss_latency::.cpu.data 96084.983607                       # average overall miss latency
system.l2.demand_avg_miss_latency::total 96324.198491                       # average overall miss latency
system.l2.overall_avg_miss_latency::.cpu.inst 98447.613504                       # average overall miss latency
system.l2.overall_avg_miss_latency::.cpu.data 96084.983607                       # average overall miss latency
system.l2.overall_avg_miss_latency::total 96324.198491                       # average overall miss latency
system.l2.blocked_cycles::no_mshrs                  0                       # number of cycles access was blocked
system.l2.blocked_cycles::no_targets                0                       # number of cycles access was blocked
system.l2.blocked::no_mshrs                         0                       # number of cycles access was blocked
system.l2.blocked::no_targets                       0                       # number of cycles access was blocked
system.l2.avg_blocked_cycles::no_mshrs            nan                       # average number of cycles each access was blocked
system.l2.avg_blocked_cycles::no_targets          nan                       # average number of cycles each access was blocked
system.l2.demand_mshr_hits::.cpu.data               1                       # number of demand (read+write) MSHR hits
system.l2.demand_mshr_hits::total                   1                       # number of demand (read+write) MSHR hits
system.l2.overall_mshr_hits::.cpu.data              1                       # number of overall MSHR hits
system.l2.overall_mshr_hits::total                  1                       # number of overall MSHR hits
system.l2.demand_mshr_misses::.cpu.inst          1718                       # number of demand (read+write) MSHR misses
system.l2.demand_mshr_misses::.cpu.data         15249                       # number of demand (read+write) MSHR misses
system.l2.demand_mshr_misses::total             16967                       # number of demand (read+write) MSHR misses
system.l2.overall_mshr_misses::.cpu.inst         1718                       # number of overall MSHR misses
system.l2.overall_mshr_misses::.cpu.data        15249                       # number of overall MSHR misses
system.l2.overall_mshr_misses::total            16967                       # number of overall MSHR misses
system.l2.demand_mshr_miss_latency::.cpu.inst    134793000                       # number of demand (read+write) MSHR miss cycles
system.l2.demand_mshr_miss_latency::.cpu.data   1160244000                       # number of demand (read+write) MSHR miss cycles
system.l2.demand_mshr_miss_latency::total   1295037000                       # number of demand (read+write) MSHR miss cycles
system.l2.overall_mshr_miss_latency::.cpu.inst    134793000                       # number of overall MSHR miss cycles
system.l2.overall_mshr_miss_latency::.cpu.data   1160244000                       # number of overall MSHR miss cycles
system.l2.overall_mshr_miss_latency::total   1295037000                       # number of overall MSHR miss cycles
system.l2.demand_mshr_miss_rate::.cpu.inst     0.010723                       # mshr miss rate for demand accesses
system.l2.demand_mshr_miss_rate::.cpu.data     0.058239                       # mshr miss rate for demand accesses
system.l2.demand_mshr_miss_rate::total       0.040201                       # mshr miss rate for demand accesses
system.l2.overall_mshr_miss_rate::.cpu.inst     0.010723                       # mshr miss rate for overall accesses
system.l2.overall_mshr_miss_rate::.cpu.data     0.058239                       # mshr miss rate for overall accesses
system.l2.overall_mshr_miss_rate::total      0.040201                       # mshr miss rate for overall accesses
system.l2.demand_avg_mshr_miss_latency::.cpu.inst 78459.254948                       # average overall mshr miss latency
system.l2.demand_avg_mshr_miss_latency::.cpu.data 76086.563053                       # average overall mshr miss latency
system.l2.demand_avg_mshr_miss_latency::total 76326.810868                       # average overall mshr miss latency
system.l2.overall_avg_mshr_miss_latency::.cpu.inst 78459.254948                       # average overall mshr miss latency
system.l2.overall_avg_mshr_miss_latency::.cpu.data 76086.563053                       # average overall mshr miss latency
system.l2.overall_avg_mshr_miss_latency::total 76326.810868                       # average overall mshr miss latency
system.l2.replacements                              0                       # number of replacements
system.l2.WritebackDirty_hits::.writebacks       247378                       # number of WritebackDirty hits
system.l2.WritebackDirty_hits::total           247378                       # number of WritebackDirty hits
system.l2.WritebackDirty_accesses::.writebacks       247378                       # number of WritebackDirty accesses(hits+misses)
system.l2.WritebackDirty_accesses::total       247378                       # number of WritebackDirty accesses(hits+misses)
system.l2.WritebackClean_hits::.writebacks       159248                       # number of WritebackClean hits
system.l2.WritebackClean_hits::total           159248                       # number of WritebackClean hits
system.l2.WritebackClean_accesses::.writebacks       159248                       # number of WritebackClean accesses(hits+misses)
system.l2.WritebackClean_accesses::total       159248                       # number of WritebackClean accesses(hits+misses)
system.l2.ReadExReq_hits::.cpu.data             17639                       # number of ReadExReq hits
system.l2.ReadExReq_hits::total                 17639                       # number of ReadExReq hits
system.l2.ReadExReq_misses::.cpu.data           10896                       # number of ReadExReq misses
system.l2.ReadExReq_misses::total               10896                       # number of ReadExReq misses
system.l2.ReadExReq_miss_latency::.cpu.data   1033791000                       # number of ReadExReq miss cycles
system.l2.ReadExReq_miss_latency::total    1033791000                       # number of ReadExReq miss cycles
system.l2.ReadExReq_accesses::.cpu.data         28535                       # number of ReadExReq accesses(hits+misses)
system.l2.ReadExReq_accesses::total             28535                       # number of ReadExReq accesses(hits+misses)
system.l2.ReadExReq_miss_rate::.cpu.data     0.381847                       # miss rate for ReadExReq accesses
system.l2.ReadExReq_miss_rate::total         0.381847                       # miss rate for ReadExReq accesses
system.l2.ReadExReq_avg_miss_latency::.cpu.data 94878.028634                       # average ReadExReq miss latency
system.l2.ReadExReq_avg_miss_latency::total 94878.028634                       # average ReadExReq miss latency
system.l2.ReadExReq_mshr_misses::.cpu.data        10896                       # number of ReadExReq MSHR misses
system.l2.ReadExReq_mshr_misses::total          10896                       # number of ReadExReq MSHR misses
system.l2.ReadExReq_mshr_miss_latency::.cpu.data    815871000                       # number of ReadExReq MSHR miss cycles
system.l2.ReadExReq_mshr_miss_latency::total    815871000                       # number of ReadExReq MSHR miss cycles
system.l2.ReadExReq_mshr_miss_rate::.cpu.data     0.381847                       # mshr miss rate for ReadExReq accesses
system.l2.ReadExReq_mshr_miss_rate::total     0.381847                       # mshr miss rate for ReadExReq accesses
system.l2.ReadExReq_avg_mshr_miss_latency::.cpu.data 74878.028634                       # average ReadExReq mshr miss latency
system.l2.ReadExReq_avg_mshr_miss_latency::total 74878.028634                       # average ReadExReq mshr miss latency
system.l2.ReadCleanReq_hits::.cpu.inst         158501                       # number of ReadCleanReq hits
system.l2.ReadCleanReq_hits::total             158501                       # number of ReadCleanReq hits
system.l2.ReadCleanReq_misses::.cpu.inst         1718                       # number of ReadCleanReq misses
system.l2.ReadCleanReq_misses::total             1718                       # number of ReadCleanReq misses
system.l2.ReadCleanReq_miss_latency::.cpu.inst    169133000                       # number of ReadCleanReq miss cycles
system.l2.ReadCleanReq_miss_latency::total    169133000                       # number of ReadCleanReq miss cycles
system.l2.ReadCleanReq_accesses::.cpu.inst       160219                       # number of ReadCleanReq accesses(hits+misses)
system.l2.ReadCleanReq_accesses::total         160219                       # number of ReadCleanReq accesses(hits+misses)
system.l2.ReadCleanReq_miss_rate::.cpu.inst     0.010723                       # miss rate for ReadCleanReq accesses
system.l2.ReadCleanReq_miss_rate::total      0.010723                       # miss rate for ReadCleanReq accesses
system.l2.ReadCleanReq_avg_miss_latency::.cpu.inst 98447.613504                       # average ReadCleanReq miss latency
system.l2.ReadCleanReq_avg_miss_latency::total 98447.613504                       # average ReadCleanReq miss latency
system.l2.ReadCleanReq_mshr_misses::.cpu.inst         1718                       # number of ReadCleanReq MSHR misses
system.l2.ReadCleanReq_mshr_misses::total         1718                       # number of ReadCleanReq MSHR misses
system.l2.ReadCleanReq_mshr_miss_latency::.cpu.inst    134793000                       # number of ReadCleanReq MSHR miss cycles
system.l2.ReadCleanReq_mshr_miss_latency::total    134793000                       # number of ReadCleanReq MSHR miss cycles
system.l2.ReadCleanReq_mshr_miss_rate::.cpu.inst     0.010723                       # mshr miss rate for ReadCleanReq accesses
system.l2.ReadCleanReq_mshr_miss_rate::total     0.010723                       # mshr miss rate for ReadCleanReq accesses
system.l2.ReadCleanReq_avg_mshr_miss_latency::.cpu.inst 78459.254948                       # average ReadCleanReq mshr miss latency
system.l2.ReadCleanReq_avg_mshr_miss_latency::total 78459.254948                       # average ReadCleanReq mshr miss latency
system.l2.ReadSharedReq_hits::.cpu.data        228947                       # number of ReadSharedReq hits
system.l2.ReadSharedReq_hits::total            228947                       # number of ReadSharedReq hits
system.l2.ReadSharedReq_misses::.cpu.data         4354                       # number of ReadSharedReq misses
system.l2.ReadSharedReq_misses::total            4354                       # number of ReadSharedReq misses
system.l2.ReadSharedReq_miss_latency::.cpu.data    431505000                       # number of ReadSharedReq miss cycles
system.l2.ReadSharedReq_miss_latency::total    431505000                       # number of ReadSharedReq miss cycles
system.l2.ReadSharedReq_accesses::.cpu.data       233301                       # number of ReadSharedReq accesses(hits+misses)
system.l2.ReadSharedReq_accesses::total        233301                       # number of ReadSharedReq accesses(hits+misses)
system.l2.ReadSharedReq_miss_rate::.cpu.data     0.018663                       # miss rate for ReadSharedReq accesses
system.l2.ReadSharedReq_miss_rate::total     0.018663                       # miss rate for ReadSharedReq accesses
system.l2.ReadSharedReq_avg_miss_latency::.cpu.data 99105.420303                       # average ReadSharedReq miss latency
system.l2.ReadSharedReq_avg_miss_latency::total 99105.420303                       # average ReadSharedReq miss latency
system.l2.ReadSharedReq_mshr_hits::.cpu.data            1                       # number of ReadSharedReq MSHR hits
system.l2.ReadSharedReq_mshr_hits::total            1                       # number of ReadSharedReq MSHR hits
system.l2.ReadSharedReq_mshr_misses::.cpu.data         4353                       # number of ReadSharedReq MSHR misses
system.l2.ReadSharedReq_mshr_misses::total         4353                       # number of ReadSharedReq MSHR misses
system.l2.ReadSharedReq_mshr_miss_latency::.cpu.data    344373000                       # number of ReadSharedReq MSHR miss cycles
system.l2.ReadSharedReq_mshr_miss_latency::total    344373000                       # number of ReadSharedReq MSHR miss cycles
system.l2.ReadSharedReq_mshr_miss_rate::.cpu.data     0.018658                       # mshr miss rate for ReadSharedReq accesses
system.l2.ReadSharedReq_mshr_miss_rate::total     0.018658                       # mshr miss rate for ReadSharedReq accesses
system.l2.ReadSharedReq_avg_mshr_miss_latency::.cpu.data 79111.647140                       # average ReadSharedReq mshr miss latency
system.l2.ReadSharedReq_avg_mshr_miss_latency::total 79111.647140                       # average ReadSharedReq mshr miss latency
system.l2.tags.pwrStateResidencyTicks::UNDEFINED  38776379000                       # Cumulative time (in ticks) in various power states
system.l2.tags.tagsinuse                 10427.171175                       # Cycle average of tags in use
system.l2.tags.total_refs                      841982                       # Total number of references to valid blocks.
system.l2.tags.sampled_refs                     16966                       # Sample count of references to valid blocks.
system.l2.tags.avg_refs                     49.627608                       # Average number of references to valid blocks.
system.l2.tags.warmup_cycle                     86000                       # Cycle when the warmup percentage was hit.
system.l2.tags.occ_blocks::.cpu.inst      1439.245067                       # Average occupied blocks per requestor
system.l2.tags.occ_blocks::.cpu.data      8987.926107                       # Average occupied blocks per requestor
system.l2.tags.occ_percent::.cpu.inst        0.043922                       # Average percentage of cache occupancy
system.l2.tags.occ_percent::.cpu.data        0.274290                       # Average percentage of cache occupancy
system.l2.tags.occ_percent::total            0.318212                       # Average percentage of cache occupancy
system.l2.tags.occ_task_id_blocks::1024         16966                       # Occupied blocks per task id
system.l2.tags.age_task_id_blocks_1024::0           76                       # Occupied blocks per task id
system.l2.tags.age_task_id_blocks_1024::1            7                       # Occupied blocks per task id
system.l2.tags.age_task_id_blocks_1024::2          393                       # Occupied blocks per task id
system.l2.tags.age_task_id_blocks_1024::3         3936                       # Occupied blocks per task id
system.l2.tags.age_task_id_blocks_1024::4        12554                       # Occupied blocks per task id
system.l2.tags.occ_task_id_percent::1024     0.517761                       # Percentage of cache occupancy per task id
system.l2.tags.tag_accesses                   6752838                       # Number of tag accesses
system.l2.tags.data_accesses                  6752838                       # Number of data accesses
system.cpu_voltage_domain.voltage                   1                       # Voltage in Volts
system.mem_ctrls.pwrStateResidencyTicks::UNDEFINED  38776379000                       # Cumulative time (in ticks) in various power states
system.mem_ctrls.bytes_read::.cpu.inst         109888                       # Number of bytes read from this memory
system.mem_ctrls.bytes_read::.cpu.data         975936                       # Number of bytes read from this memory
system.mem_ctrls.bytes_read::total            1085824                       # Number of bytes read from this memory
system.mem_ctrls.bytes_inst_read::.cpu.inst       109888                       # Number of instructions bytes read from this memory
system.mem_ctrls.bytes_inst_read::total        109888                       # Number of instructions bytes read from this memory
system.mem_ctrls.num_reads::.cpu.inst            1717                       # Number of read requests responded to by this memory
system.mem_ctrls.num_reads::.cpu.data           15249                       # Number of read requests responded to by this memory
system.mem_ctrls.num_reads::total               16966                       # Number of read requests responded to by this memory
system.mem_ctrls.bw_read::.cpu.inst           2833890                       # Total read bandwidth from this memory (bytes/s)
system.mem_ctrls.bw_read::.cpu.data          25168312                       # Total read bandwidth from this memory (bytes/s)
system.mem_ctrls.bw_read::total              28002202                       # Total read bandwidth from this memory (bytes/s)
system.mem_ctrls.bw_inst_read::.cpu.inst      2833890                       # Instruction read bandwidth from this memory (bytes/s)
system.mem_ctrls.bw_inst_read::total          2833890                       # Instruction read bandwidth from this memory (bytes/s)
system.mem_ctrls.bw_total::.cpu.inst          2833890                       # Total bandwidth to/from this memory (bytes/s)
system.mem_ctrls.bw_total::.cpu.data         25168312                       # Total bandwidth to/from this memory (bytes/s)
system.mem_ctrls.bw_total::total             28002202                       # Total bandwidth to/from this memory (bytes/s)
system.mem_ctrls.avgPriority_.cpu.inst::samples      1717.00                       # Average QoS priority value for accepted requests
system.mem_ctrls.avgPriority_.cpu.data::samples     15249.00                       # Average QoS priority value for accepted requests
system.mem_ctrls.priorityMinLatency      0.000000018750                       # per QoS priority minimum request to response latency (s)
system.mem_ctrls.priorityMaxLatency      0.000000583000                       # per QoS priority maximum request to response latency (s)
system.mem_ctrls.numReadWriteTurnArounds            0                       # Number of turnarounds from READ to WRITE
system.mem_ctrls.numWriteReadTurnArounds            0                       # Number of turnarounds from WRITE to READ
system.mem_ctrls.numStayReadState               43857                       # Number of times bus staying in READ state
system.mem_ctrls.numStayWriteState                  0                       # Number of times bus staying in WRITE state
system.mem_ctrls.readReqs                       16966                       # Number of read requests accepted
system.mem_ctrls.writeReqs                          0                       # Number of write requests accepted
system.mem_ctrls.readBursts                     16966                       # Number of DRAM read bursts, including those serviced by the write queue
system.mem_ctrls.writeBursts                        0                       # Number of DRAM write bursts, including those merged in the write queue
system.mem_ctrls.servicedByWrQ                      0                       # Number of DRAM read bursts serviced by the write queue
system.mem_ctrls.mergedWrBursts                     0                       # Number of DRAM write bursts merged with an existing one
system.mem_ctrls.neitherReadNorWriteReqs            0                       # Number of requests that are neither read nor write
system.mem_ctrls.perBankRdBursts::0               969                       # Per bank write bursts
system.mem_ctrls.perBankRdBursts::1              1061                       # Per bank write bursts
system.mem_ctrls.perBankRdBursts::2              1042                       # Per bank write bursts
system.mem_ctrls.perBankRdBursts::3              1134                       # Per bank write bursts
system.mem_ctrls.perBankRdBursts::4              1278                       # Per bank write bursts
system.mem_ctrls.perBankRdBursts::5              1166                       # Per bank write bursts
system.mem_ctrls.perBankRdBursts::6              1021                       # Per bank write bursts
system.mem_ctrls.perBankRdBursts::7              1042                       # Per bank write bursts
system.mem_ctrls.perBankRdBursts::8              1106                       # Per bank write bursts
system.mem_ctrls.perBankRdBursts::9              1029                       # Per bank write bursts
system.mem_ctrls.perBankRdBursts::10              923                       # Per bank write bursts
system.mem_ctrls.perBankRdBursts::11             1085                       # Per bank write bursts
system.mem_ctrls.perBankRdBursts::12             1263                       # Per bank write bursts
system.mem_ctrls.perBankRdBursts::13             1061                       # Per bank write bursts
system.mem_ctrls.perBankRdBursts::14              919                       # Per bank write bursts
system.mem_ctrls.perBankRdBursts::15              867                       # Per bank write bursts
system.mem_ctrls.perBankWrBursts::0                 0                       # Per bank write bursts
system.mem_ctrls.perBankWrBursts::1                 0                       # Per bank write bursts
system.mem_ctrls.perBankWrBursts::2                 0                       # Per bank write bursts
system.mem_ctrls.perBankWrBursts::3                 0                       # Per bank write bursts
system.mem_ctrls.perBankWrBursts::4                 0                       # Per bank write bursts
system.mem_ctrls.perBankWrBursts::5                 0                       # Per bank write bursts
system.mem_ctrls.perBankWrBursts::6                 0                       # Per bank write bursts
system.mem_ctrls.perBankWrBursts::7                 0                       # Per bank write bursts
system.mem_ctrls.perBankWrBursts::8                 0                       # Per bank write bursts
system.mem_ctrls.perBankWrBursts::9                 0                       # Per bank write bursts
system.mem_ctrls.perBankWrBursts::10                0                       # Per bank write bursts
system.mem_ctrls.perBankWrBursts::11                0                       # Per bank write bursts
system.mem_ctrls.perBankWrBursts::12                0                       # Per bank write bursts
system.mem_ctrls.perBankWrBursts::13                0                       # Per bank write bursts
system.mem_ctrls.perBankWrBursts::14                0                       # Per bank write bursts
system.mem_ctrls.perBankWrBursts::15                0                       # Per bank write bursts
system.mem_ctrls.avgRdQLen                       1.03                       # Average read queue length when enqueuing
system.mem_ctrls.avgWrQLen                       0.00                       # Average write queue length when enqueuing
system.mem_ctrls.totQLat                    106740000                       # Total ticks spent queuing
[...]
system.cpu.interrupts.clk_domain.clock          16000                       # Clock period in ticks
system.cpu.itb_walker_cache.pwrStateResidencyTicks::UNDEFINED  38776379000                       # Cumulative time (in ticks) in various power states
system.cpu.itb_walker_cache.blocked_cycles::no_mshrs            0                       # number of cycles access was blocked
system.cpu.itb_walker_cache.blocked_cycles::no_targets            0                       # number of cycles access was blocked
system.cpu.itb_walker_cache.blocked::no_mshrs            0                       # number of cycles access was blocked
system.cpu.itb_walker_cache.blocked::no_targets            0                       # number of cycles access was blocked
system.cpu.itb_walker_cache.avg_blocked_cycles::no_mshrs          nan                       # average number of cycles each access was blocked
system.cpu.itb_walker_cache.avg_blocked_cycles::no_targets          nan                       # average number of cycles each access was blocked
system.cpu.itb_walker_cache.replacements            0                       # number of replacements
system.cpu.itb_walker_cache.tags.pwrStateResidencyTicks::UNDEFINED  38776379000                       # Cumulative time (in ticks) in various power states
system.cpu.itb_walker_cache.tags.tagsinuse            0                       # Cycle average of tags in use
system.cpu.itb_walker_cache.tags.total_refs            0                       # Total number of references to valid blocks.
system.cpu.itb_walker_cache.tags.sampled_refs            0                       # Sample count of references to valid blocks.
system.cpu.itb_walker_cache.tags.avg_refs          nan                       # Average number of references to valid blocks.
system.cpu.itb_walker_cache.tags.warmup_cycle            0                       # Cycle when the warmup percentage was hit.
system.cpu.itb_walker_cache.tags.tag_accesses            0                       # Number of tag accesses
system.cpu.itb_walker_cache.tags.data_accesses            0                       # Number of data accesses
system.cpu.itb.walker.pwrStateResidencyTicks::UNDEFINED  38776379000                       # Cumulative time (in ticks) in various power states
system.cpu.dtb_walker_cache.pwrStateResidencyTicks::UNDEFINED  38776379000                       # Cumulative time (in ticks) in various power states
system.cpu.dtb_walker_cache.blocked_cycles::no_mshrs            0                       # number of cycles access was blocked
system.cpu.dtb_walker_cache.blocked_cycles::no_targets            0                       # number of cycles access was blocked
system.cpu.dtb_walker_cache.blocked::no_mshrs            0                       # number of cycles access was blocked
system.cpu.dtb_walker_cache.blocked::no_targets            0                       # number of cycles access was blocked
system.cpu.dtb_walker_cache.avg_blocked_cycles::no_mshrs          nan                       # average number of cycles each access was blocked
system.cpu.dtb_walker_cache.avg_blocked_cycles::no_targets          nan                       # average number of cycles each access was blocked
system.cpu.dtb_walker_cache.replacements            0                       # number of replacements
system.cpu.dtb_walker_cache.tags.pwrStateResidencyTicks::UNDEFINED  38776379000                       # Cumulative time (in ticks) in various power states
system.cpu.dtb_walker_cache.tags.tagsinuse            0                       # Cycle average of tags in use
system.cpu.dtb_walker_cache.tags.total_refs            0                       # Total number of references to valid blocks.
system.cpu.dtb_walker_cache.tags.sampled_refs            0                       # Sample count of references to valid blocks.
system.cpu.dtb_walker_cache.tags.avg_refs          nan                       # Average number of references to valid blocks.
system.cpu.dtb_walker_cache.tags.warmup_cycle            0                       # Cycle when the warmup percentage was hit.
system.cpu.dtb_walker_cache.tags.tag_accesses            0                       # Number of tag accesses
system.cpu.dtb_walker_cache.tags.data_accesses            0                       # Number of data accesses
system.cpu.dcache.pwrStateResidencyTicks::UNDEFINED  38776379000                       # Cumulative time (in ticks) in various power states
system.cpu.dcache.demand_hits::.cpu.data     25635982                       # number of demand (read+write) hits
system.cpu.dcache.demand_hits::total         25635982                       # number of demand (read+write) hits
system.cpu.dcache.overall_hits::.cpu.data     25636009                       # number of overall hits
system.cpu.dcache.overall_hits::total        25636009                       # number of overall hits
system.cpu.dcache.demand_misses::.cpu.data       696153                       # number of demand (read+write) misses
system.cpu.dcache.demand_misses::total         696153                       # number of demand (read+write) misses
system.cpu.dcache.overall_misses::.cpu.data       699626                       # number of overall misses
system.cpu.dcache.overall_misses::total        699626                       # number of overall misses
system.cpu.dcache.demand_miss_latency::.cpu.data  15426718978                       # number of demand (read+write) miss cycles
system.cpu.dcache.demand_miss_latency::total  15426718978                       # number of demand (read+write) miss cycles
system.cpu.dcache.overall_miss_latency::.cpu.data  15426718978                       # number of overall miss cycles
system.cpu.dcache.overall_miss_latency::total  15426718978                       # number of overall miss cycles
system.cpu.dcache.demand_accesses::.cpu.data     26332135                       # number of demand (read+write) accesses
system.cpu.dcache.demand_accesses::total     26332135                       # number of demand (read+write) accesses
system.cpu.dcache.overall_accesses::.cpu.data     26335635                       # number of overall (read+write) accesses
system.cpu.dcache.overall_accesses::total     26335635                       # number of overall (read+write) accesses
system.cpu.dcache.demand_miss_rate::.cpu.data     0.026437                       # miss rate for demand accesses
system.cpu.dcache.demand_miss_rate::total     0.026437                       # miss rate for demand accesses
system.cpu.dcache.overall_miss_rate::.cpu.data     0.026566                       # miss rate for overall accesses
system.cpu.dcache.overall_miss_rate::total     0.026566                       # miss rate for overall accesses
system.cpu.dcache.demand_avg_miss_latency::.cpu.data 22159.954748                       # average overall miss latency
system.cpu.dcache.demand_avg_miss_latency::total 22159.954748                       # average overall miss latency
system.cpu.dcache.overall_avg_miss_latency::.cpu.data 22049.950942                       # average overall miss latency
system.cpu.dcache.overall_avg_miss_latency::total 22049.950942                       # average overall miss latency
system.cpu.dcache.blocked_cycles::no_mshrs        54967                       # number of cycles access was blocked
system.cpu.dcache.blocked_cycles::no_targets          299                       # number of cycles access was blocked
system.cpu.dcache.blocked::no_mshrs              2675                       # number of cycles access was blocked
system.cpu.dcache.blocked::no_targets              22                       # number of cycles access was blocked
system.cpu.dcache.avg_blocked_cycles::no_mshrs    20.548411                       # average number of cycles each access was blocked
system.cpu.dcache.avg_blocked_cycles::no_targets    13.590909                       # average number of cycles each access was blocked
system.cpu.dcache.writebacks::.writebacks       247378                       # number of writebacks
system.cpu.dcache.writebacks::total            247378                       # number of writebacks
system.cpu.dcache.demand_mshr_hits::.cpu.data       437790                       # number of demand (read+write) MSHR hits
system.cpu.dcache.demand_mshr_hits::total       437790                       # number of demand (read+write) MSHR hits
system.cpu.dcache.overall_mshr_hits::.cpu.data       437790                       # number of overall MSHR hits
system.cpu.dcache.overall_mshr_hits::total       437790                       # number of overall MSHR hits
system.cpu.dcache.demand_mshr_misses::.cpu.data       258363                       # number of demand (read+write) MSHR misses
system.cpu.dcache.demand_mshr_misses::total       258363                       # number of demand (read+write) MSHR misses
system.cpu.dcache.overall_mshr_misses::.cpu.data       261836                       # number of overall MSHR misses
system.cpu.dcache.overall_mshr_misses::total       261836                       # number of overall MSHR misses
system.cpu.dcache.demand_mshr_miss_latency::.cpu.data   7226989978                       # number of demand (read+write) MSHR miss cycles
system.cpu.dcache.demand_mshr_miss_latency::total   7226989978                       # number of demand (read+write) MSHR miss cycles
system.cpu.dcache.overall_mshr_miss_latency::.cpu.data   7450156978                       # number of overall MSHR miss cycles
system.cpu.dcache.overall_mshr_miss_latency::total   7450156978                       # number of overall MSHR miss cycles
system.cpu.dcache.demand_mshr_miss_rate::.cpu.data     0.009812                       # mshr miss rate for demand accesses
system.cpu.dcache.demand_mshr_miss_rate::total     0.009812                       # mshr miss rate for demand accesses
system.cpu.dcache.overall_mshr_miss_rate::.cpu.data     0.009942                       # mshr miss rate for overall accesses
system.cpu.dcache.overall_mshr_miss_rate::total     0.009942                       # mshr miss rate for overall accesses
system.cpu.dcache.demand_avg_mshr_miss_latency::.cpu.data 27972.232781                       # average overall mshr miss latency
system.cpu.dcache.demand_avg_mshr_miss_latency::total 27972.232781                       # average overall mshr miss latency
system.cpu.dcache.overall_avg_mshr_miss_latency::.cpu.data 28453.524259                       # average overall mshr miss latency
system.cpu.dcache.overall_avg_mshr_miss_latency::total 28453.524259                       # average overall mshr miss latency
system.cpu.dcache.replacements                 260812                       # number of replacements
system.cpu.dcache.ReadReq_hits::.cpu.data     16618658                       # number of ReadReq hits
system.cpu.dcache.ReadReq_hits::total        16618658                       # number of ReadReq hits
system.cpu.dcache.ReadReq_misses::.cpu.data       667493                       # number of ReadReq misses
system.cpu.dcache.ReadReq_misses::total        667493                       # number of ReadReq misses
system.cpu.dcache.ReadReq_miss_latency::.cpu.data  13873845000                       # number of ReadReq miss cycles
system.cpu.dcache.ReadReq_miss_latency::total  13873845000                       # number of ReadReq miss cycles
system.cpu.dcache.ReadReq_accesses::.cpu.data     17286151                       # number of ReadReq accesses(hits+misses)
system.cpu.dcache.ReadReq_accesses::total     17286151                       # number of ReadReq accesses(hits+misses)
system.cpu.dcache.ReadReq_miss_rate::.cpu.data     0.038614                       # miss rate for ReadReq accesses
system.cpu.dcache.ReadReq_miss_rate::total     0.038614                       # miss rate for ReadReq accesses
system.cpu.dcache.ReadReq_avg_miss_latency::.cpu.data 20785.004487                       # average ReadReq miss latency
system.cpu.dcache.ReadReq_avg_miss_latency::total 20785.004487                       # average ReadReq miss latency
system.cpu.dcache.ReadReq_mshr_hits::.cpu.data       437664                       # number of ReadReq MSHR hits
system.cpu.dcache.ReadReq_mshr_hits::total       437664                       # number of ReadReq MSHR hits
system.cpu.dcache.ReadReq_mshr_misses::.cpu.data       229829                       # number of ReadReq MSHR misses
system.cpu.dcache.ReadReq_mshr_misses::total       229829                       # number of ReadReq MSHR misses
system.cpu.dcache.ReadReq_mshr_miss_latency::.cpu.data   5733318000                       # number of ReadReq MSHR miss cycles
system.cpu.dcache.ReadReq_mshr_miss_latency::total   5733318000                       # number of ReadReq MSHR miss cycles
system.cpu.dcache.ReadReq_mshr_miss_rate::.cpu.data     0.013296                       # mshr miss rate for ReadReq accesses
system.cpu.dcache.ReadReq_mshr_miss_rate::total     0.013296                       # mshr miss rate for ReadReq accesses
system.cpu.dcache.ReadReq_avg_mshr_miss_latency::.cpu.data 24946.016386                       # average ReadReq mshr miss latency
system.cpu.dcache.ReadReq_avg_mshr_miss_latency::total 24946.016386                       # average ReadReq mshr miss latency
system.cpu.dcache.WriteReq_hits::.cpu.data      9017324                       # number of WriteReq hits
system.cpu.dcache.WriteReq_hits::total        9017324                       # number of WriteReq hits
system.cpu.dcache.WriteReq_misses::.cpu.data        28660                       # number of WriteReq misses
system.cpu.dcache.WriteReq_misses::total        28660                       # number of WriteReq misses
system.cpu.dcache.WriteReq_miss_latency::.cpu.data   1552873978                       # number of WriteReq miss cycles
system.cpu.dcache.WriteReq_miss_latency::total   1552873978                       # number of WriteReq miss cycles
system.cpu.dcache.WriteReq_accesses::.cpu.data      9045984                       # number of WriteReq accesses(hits+misses)
system.cpu.dcache.WriteReq_accesses::total      9045984                       # number of WriteReq accesses(hits+misses)
system.cpu.dcache.WriteReq_miss_rate::.cpu.data     0.003168                       # miss rate for WriteReq accesses
system.cpu.dcache.WriteReq_miss_rate::total     0.003168                       # miss rate for WriteReq accesses
system.cpu.dcache.WriteReq_avg_miss_latency::.cpu.data 54182.623098                       # average WriteReq miss latency
system.cpu.dcache.WriteReq_avg_miss_latency::total 54182.623098                       # average WriteReq miss latency
system.cpu.dcache.WriteReq_mshr_hits::.cpu.data          126                       # number of WriteReq MSHR hits
system.cpu.dcache.WriteReq_mshr_hits::total          126                       # number of WriteReq MSHR hits
system.cpu.dcache.WriteReq_mshr_misses::.cpu.data        28534                       # number of WriteReq MSHR misses
system.cpu.dcache.WriteReq_mshr_misses::total        28534                       # number of WriteReq MSHR misses
system.cpu.dcache.WriteReq_mshr_miss_latency::.cpu.data   1493671978                       # number of WriteReq MSHR miss cycles
system.cpu.dcache.WriteReq_mshr_miss_latency::total   1493671978                       # number of WriteReq MSHR miss cycles
system.cpu.dcache.WriteReq_mshr_miss_rate::.cpu.data     0.003154                       # mshr miss rate for WriteReq accesses
system.cpu.dcache.WriteReq_mshr_miss_rate::total     0.003154                       # mshr miss rate for WriteReq accesses
system.cpu.dcache.WriteReq_avg_mshr_miss_latency::.cpu.data 52347.093923                       # average WriteReq mshr miss latency
system.cpu.dcache.WriteReq_avg_mshr_miss_latency::total 52347.093923                       # average WriteReq mshr miss latency
system.cpu.dcache.SoftPFReq_hits::.cpu.data           27                       # number of SoftPFReq hits
system.cpu.dcache.SoftPFReq_hits::total            27                       # number of SoftPFReq hits
system.cpu.dcache.SoftPFReq_misses::.cpu.data         3473                       # number of SoftPFReq misses
system.cpu.dcache.SoftPFReq_misses::total         3473                       # number of SoftPFReq misses
system.cpu.dcache.SoftPFReq_accesses::.cpu.data         3500                       # number of SoftPFReq accesses(hits+misses)
system.cpu.dcache.SoftPFReq_accesses::total         3500                       # number of SoftPFReq accesses(hits+misses)
system.cpu.dcache.SoftPFReq_miss_rate::.cpu.data     0.992286                       # miss rate for SoftPFReq accesses
system.cpu.dcache.SoftPFReq_miss_rate::total     0.992286                       # miss rate for SoftPFReq accesses
system.cpu.dcache.SoftPFReq_mshr_misses::.cpu.data         3473                       # number of SoftPFReq MSHR misses
system.cpu.dcache.SoftPFReq_mshr_misses::total         3473                       # number of SoftPFReq MSHR misses
system.cpu.dcache.SoftPFReq_mshr_miss_latency::.cpu.data    223167000                       # number of SoftPFReq MSHR miss cycles
system.cpu.dcache.SoftPFReq_mshr_miss_latency::total    223167000                       # number of SoftPFReq MSHR miss cycles
system.cpu.dcache.SoftPFReq_mshr_miss_rate::.cpu.data     0.992286                       # mshr miss rate for SoftPFReq accesses
system.cpu.dcache.SoftPFReq_mshr_miss_rate::total     0.992286                       # mshr miss rate for SoftPFReq accesses
system.cpu.dcache.SoftPFReq_avg_mshr_miss_latency::.cpu.data 64257.702275                       # average SoftPFReq mshr miss latency
system.cpu.dcache.SoftPFReq_avg_mshr_miss_latency::total 64257.702275                       # average SoftPFReq mshr miss latency
system.cpu.dcache.tags.pwrStateResidencyTicks::UNDEFINED  38776379000                       # Cumulative time (in ticks) in various power states
system.cpu.dcache.tags.tagsinuse          1021.833247                       # Cycle average of tags in use
system.cpu.dcache.tags.total_refs            25897845                       # Total number of references to valid blocks.
system.cpu.dcache.tags.sampled_refs            261836                       # Sample count of references to valid blocks.
system.cpu.dcache.tags.avg_refs             98.908649                       # Average number of references to valid blocks.
system.cpu.dcache.tags.warmup_cycle            223000                       # Cycle when the warmup percentage was hit.
system.cpu.dcache.tags.occ_blocks::.cpu.data  1021.833247                       # Average occupied blocks per requestor
system.cpu.dcache.tags.occ_percent::.cpu.data     0.997884                       # Average percentage of cache occupancy
system.cpu.dcache.tags.occ_percent::total     0.997884                       # Average percentage of cache occupancy
system.cpu.dcache.tags.occ_task_id_blocks::1024         1024                       # Occupied blocks per task id
system.cpu.dcache.tags.age_task_id_blocks_1024::0           62                       # Occupied blocks per task id
system.cpu.dcache.tags.age_task_id_blocks_1024::1          592                       # Occupied blocks per task id
system.cpu.dcache.tags.age_task_id_blocks_1024::2          243                       # Occupied blocks per task id
system.cpu.dcache.tags.age_task_id_blocks_1024::3           57                       # Occupied blocks per task id
system.cpu.dcache.tags.age_task_id_blocks_1024::4           70                       # Occupied blocks per task id
system.cpu.dcache.tags.occ_task_id_percent::1024            1                       # Percentage of cache occupancy per task id
system.cpu.dcache.tags.tag_accesses          52933106                       # Number of tag accesses
system.cpu.dcache.tags.data_accesses         52933106                       # Number of data accesses

---------- End Simulation Statistics   ----------
