
---------- Begin Simulation Statistics ----------
final_tick                                49780217000                       # Number of ticks from beginning of simulation (restored from checkpoints and never reset)
host_inst_rate                                 154391                       # Simulator instruction rate (inst/s)
host_mem_usage                                 843440                       # Number of bytes of host memory used
host_op_rate                                   256837                       # Simulator op (including micro ops) rate (op/s)
host_seconds                                   488.61                       # Real time elapsed on the host
host_tick_rate                              101882045                       # Simulator tick rate (ticks/s)
sim_freq                                 1000000000000                       # Frequency of simulated ticks
sim_insts                                    75436203                       # Number of instructions simulated
sim_ops                                     125492054                       # Number of ops (including micro ops) simulated
sim_seconds                                  0.049780                       # Number of seconds simulated
sim_ticks                                 49780217000                       # Number of ticks simulated
system.cpu.branchPred.BTBCorrect                    0                       # Number of correct BTB predictions (this stat may not work properly.
system.cpu.branchPred.BTBHitPct              0.000000                       # BTB Hit Percentage
system.cpu.branchPred.BTBHits                       0                       # Number of BTB hits
system.cpu.branchPred.BTBLookups              9328264                       # Number of BTB lookups
system.cpu.branchPred.RASInCorrect                 76                       # Number of incorrect RAS predictions.
system.cpu.branchPred.condIncorrect            514236                       # Number of conditional branches incorrect
system.cpu.branchPred.condPredicted           9530240                       # Number of conditional branches predicted
system.cpu.branchPred.indirectHits            6522348                       # Number of indirect target hits.
system.cpu.branchPred.indirectLookups         9328264                       # Number of indirect predictor lookups.
system.cpu.branchPred.indirectMisses          2805916                       # Number of indirect misses.
system.cpu.branchPred.lookups                10501195                       # Number of BP lookups
system.cpu.branchPred.usedRAS                  478925                       # Number of times the RAS was used to get a target.
system.cpu.branchPredindirectMispredicted       268006                       # Number of mispredicted indirect branches.
system.cpu.cc_regfile_reads                  45393418                       # number of cc regfile reads
system.cpu.cc_regfile_writes                 38401193                       # number of cc regfile writes
system.cpu.commit.amos                              0                       # Number of atomic instructions committed
system.cpu.commit.branchMispredicts            514324                       # The number of times a branch was mispredicted
system.cpu.commit.branches                    8022620                       # Number of branches committed
system.cpu.commit.bw_lim_events               7263068                       # number cycles where commit BW limit reached
system.cpu.commit.commitNonSpecStalls             342                       # The number of times commit has been forced to stall to communicate backwards
system.cpu.commit.commitSquashedInsts        16948601                       # The number of squashed insts skipped by commit
system.cpu.commit.committedInsts             75436203                       # Number of instructions committed
system.cpu.commit.committedOps              125492054                       # Number of ops (including micro ops) committed
system.cpu.commit.committed_per_cycle::samples     47229039                       # Number of insts commited each cycle
system.cpu.commit.committed_per_cycle::mean     2.657095                       # Number of insts commited each cycle
system.cpu.commit.committed_per_cycle::stdev     2.881392                       # Number of insts commited each cycle
system.cpu.commit.committed_per_cycle::underflows            0      0.00%      0.00% # Number of insts commited each cycle
system.cpu.commit.committed_per_cycle::0     14553806     30.82%     30.82% # Number of insts commited each cycle
system.cpu.commit.committed_per_cycle::1      9218688     19.52%     50.33% # Number of insts commited each cycle
system.cpu.commit.committed_per_cycle::2      4023357      8.52%     58.85% # Number of insts commited each cycle
system.cpu.commit.committed_per_cycle::3      7178699     15.20%     74.05% # Number of insts commited each cycle
system.cpu.commit.committed_per_cycle::4      1023041      2.17%     76.22% # Number of insts commited each cycle
system.cpu.commit.committed_per_cycle::5      1343026      2.84%     79.06% # Number of insts commited each cycle
system.cpu.commit.committed_per_cycle::6       598761      1.27%     80.33% # Number of insts commited each cycle
system.cpu.commit.committed_per_cycle::7      2026593      4.29%     84.62% # Number of insts commited each cycle
system.cpu.commit.committed_per_cycle::8      7263068     15.38%    100.00% # Number of insts commited each cycle
system.cpu.commit.committed_per_cycle::overflows            0      0.00%    100.00% # Number of insts commited each cycle
system.cpu.commit.committed_per_cycle::min_value            0                       # Number of insts commited each cycle
system.cpu.commit.committed_per_cycle::max_value            8                       # Number of insts commited each cycle
system.cpu.commit.committed_per_cycle::total     47229039                       # Number of insts commited each cycle
system.cpu.commit.fp_insts                   15257866                       # Number of committed floating point instructions.
system.cpu.commit.function_calls               331381                       # Number of function calls committed.
system.cpu.commit.int_insts                 116534678                       # Number of committed integer instructions.
system.cpu.commit.loads                      39475349                       # Number of loads committed
system.cpu.commit.membars                           0                       # Number of memory barriers committed
system.cpu.commit.op_class_0::No_OpClass       396158      0.32%      0.32% # Class of committed instruction
system.cpu.commit.op_class_0::IntAlu         65518704     52.21%     52.53% # Class of committed instruction
system.cpu.commit.op_class_0::IntMult           41115      0.03%     52.56% # Class of committed instruction
system.cpu.commit.op_class_0::IntDiv           555804      0.44%     53.00% # Class of committed instruction
system.cpu.commit.op_class_0::FloatAdd        4888605      3.90%     56.90% # Class of committed instruction
system.cpu.commit.op_class_0::FloatCmp              0      0.00%     56.90% # Class of committed instruction
system.cpu.commit.op_class_0::FloatCvt            240      0.00%     56.90% # Class of committed instruction
system.cpu.commit.op_class_0::FloatMult             0      0.00%     56.90% # Class of committed instruction
system.cpu.commit.op_class_0::FloatMultAcc            0      0.00%     56.90% # Class of committed instruction
system.cpu.commit.op_class_0::FloatDiv              0      0.00%     56.90% # Class of committed instruction
system.cpu.commit.op_class_0::FloatMisc             0      0.00%     56.90% # Class of committed instruction
system.cpu.commit.op_class_0::FloatSqrt             0      0.00%     56.90% # Class of committed instruction
system.cpu.commit.op_class_0::SimdAdd               0      0.00%     56.90% # Class of committed instruction
system.cpu.commit.op_class_0::SimdAddAcc            0      0.00%     56.90% # Class of committed instruction
system.cpu.commit.op_class_0::SimdAlu           55888      0.04%     56.94% # Class of committed instruction
system.cpu.commit.op_class_0::SimdCmp               0      0.00%     56.94% # Class of committed instruction
system.cpu.commit.op_class_0::SimdCvt           74006      0.06%     57.00% # Class of committed instruction
system.cpu.commit.op_class_0::SimdMisc         211704      0.17%     57.17% # Class of committed instruction
system.cpu.commit.op_class_0::SimdMult              0      0.00%     57.17% # Class of committed instruction
system.cpu.commit.op_class_0::SimdMultAcc            0      0.00%     57.17% # Class of committed instruction
system.cpu.commit.op_class_0::SimdShift             0      0.00%     57.17% # Class of committed instruction
system.cpu.commit.op_class_0::SimdShiftAcc            0      0.00%     57.17% # Class of committed instruction
system.cpu.commit.op_class_0::SimdDiv               0      0.00%     57.17% # Class of committed instruction
system.cpu.commit.op_class_0::SimdSqrt              0      0.00%     57.17% # Class of committed instruction
system.cpu.commit.op_class_0::SimdFloatAdd      1642100      1.31%     58.48% # Class of committed instruction
system.cpu.commit.op_class_0::SimdFloatAlu            0      0.00%     58.48% # Class of committed instruction
system.cpu.commit.op_class_0::SimdFloatCmp            0      0.00%     58.48% # Class of committed instruction
system.cpu.commit.op_class_0::SimdFloatCvt        23310      0.02%     58.50% # Class of committed instruction
system.cpu.commit.op_class_0::SimdFloatDiv        19110      0.02%     58.51% # Class of committed instruction
system.cpu.commit.op_class_0::SimdFloatMisc            0      0.00%     58.51% # Class of committed instruction
system.cpu.commit.op_class_0::SimdFloatMult      1646080      1.31%     59.82% # Class of committed instruction
system.cpu.commit.op_class_0::SimdFloatMultAcc            0      0.00%     59.82% # Class of committed instruction
system.cpu.commit.op_class_0::SimdFloatSqrt            0      0.00%     59.82% # Class of committed instruction
system.cpu.commit.op_class_0::SimdReduceAdd            0      0.00%     59.82% # Class of committed instruction
system.cpu.commit.op_class_0::SimdReduceAlu            0      0.00%     59.82% # Class of committed instruction
system.cpu.commit.op_class_0::SimdReduceCmp            0      0.00%     59.82% # Class of committed instruction
system.cpu.commit.op_class_0::SimdFloatReduceAdd            0      0.00%     59.82% # Class of committed instruction
system.cpu.commit.op_class_0::SimdFloatReduceCmp            0      0.00%     59.82% # Class of committed instruction
system.cpu.commit.op_class_0::SimdAes               0      0.00%     59.82% # Class of committed instruction
system.cpu.commit.op_class_0::SimdAesMix            0      0.00%     59.82% # Class of committed instruction
system.cpu.commit.op_class_0::SimdSha1Hash            0      0.00%     59.82% # Class of committed instruction
system.cpu.commit.op_class_0::SimdSha1Hash2            0      0.00%     59.82% # Class of committed instruction
system.cpu.commit.op_class_0::SimdSha256Hash            0      0.00%     59.82% # Class of committed instruction
system.cpu.commit.op_class_0::SimdSha256Hash2            0      0.00%     59.82% # Class of committed instruction
system.cpu.commit.op_class_0::SimdShaSigma2            0      0.00%     59.82% # Class of committed instruction
system.cpu.commit.op_class_0::SimdShaSigma3            0      0.00%     59.82% # Class of committed instruction
system.cpu.commit.op_class_0::SimdPredAlu            0      0.00%     59.82% # Class of committed instruction
system.cpu.commit.op_class_0::MemRead        34516189     27.50%     87.33% # Class of committed instruction
system.cpu.commit.op_class_0::MemWrite        9298535      7.41%     94.74% # Class of committed instruction
system.cpu.commit.op_class_0::FloatMemRead      4959160      3.95%     98.69% # Class of committed instruction
system.cpu.commit.op_class_0::FloatMemWrite      1645346      1.31%    100.00% # Class of committed instruction
system.cpu.commit.op_class_0::IprAccess             0      0.00%    100.00% # Class of committed instruction
system.cpu.commit.op_class_0::InstPrefetch            0      0.00%    100.00% # Class of committed instruction
system.cpu.commit.op_class_0::total         125492054                       # Class of committed instruction
system.cpu.commit.refs                       50419230                       # Number of memory references committed
system.cpu.commit.swp_count                         0                       # Number of s/w prefetches committed
system.cpu.commit.vec_insts                         0                       # Number of committed Vector instructions.
system.cpu.committedInsts                    75436203                       # Number of Instructions Simulated
system.cpu.committedOps                     125492054                       # Number of Ops (including micro ops) Simulated
system.cpu.cpi                               0.659898                       # CPI: Cycles Per Instruction
system.cpu.cpi_total                         0.659898                       # CPI: Total CPI of All Threads
system.cpu.decode.BlockedCycles              16896696                       # Number of cycles decode is blocked
system.cpu.decode.DecodedInsts              148964034                       # Number of instructions handled by decode
system.cpu.decode.IdleCycles                 11220173                       # Number of cycles decode is idle
system.cpu.decode.RunCycles                  14482850                       # Number of cycles decode is running
system.cpu.decode.SquashCycles                 524174                       # Number of cycles decode is squashing
system.cpu.decode.UnblockCycles               6542578                       # Number of cycles decode is unblocking
system.cpu.dtb.rdAccesses                    41639812                       # TLB accesses on read requests
system.cpu.dtb.rdMisses                         17372                       # TLB misses on read requests
system.cpu.dtb.wrAccesses                    11280344                       # TLB accesses on write requests
system.cpu.dtb.wrMisses                          2898                       # TLB misses on write requests
system.cpu.fetch.Branches                    10501195                       # Number of branches that fetch encountered
system.cpu.fetch.CacheLines                   8389024                       # Number of cache lines fetched
system.cpu.fetch.Cycles                      37168600                       # Number of cycles fetch has run and was not squashing or blocked
system.cpu.fetch.IcacheSquashes                168895                       # Number of outstanding Icache misses that were squashed
system.cpu.fetch.IcacheWaitRetryStallCycles           10                       # Number of stall cycles due to full MSHR
system.cpu.fetch.Insts                       90996911                       # Number of instructions fetch has processed
system.cpu.fetch.MiscStallCycles                  163                       # Number of cycles fetch has spent waiting on interrupts, or bad addresses, or out of MSHRs
system.cpu.fetch.PendingQuiesceStallCycles          596                       # Number of stall cycles due to pending quiesce instructions
system.cpu.fetch.PendingTrapStallCycles           920                       # Number of stall cycles due to pending traps
system.cpu.fetch.SquashCycles                 1048348                       # Number of cycles fetch has spent squashing
system.cpu.fetch.branchRate                  0.210951                       # Number of branch fetches per cycle
system.cpu.fetch.icacheStallCycles           11972008                       # Number of cycles fetch is stalled on an Icache miss
system.cpu.fetch.predictedBranches            7001273                       # Number of branches that fetch has predicted taken
system.cpu.fetch.rate                        1.827973                       # Number of inst fetches per cycle
system.cpu.fetch.rateDist::samples           49666471                       # Number of instructions fetched each cycle (Total)
system.cpu.fetch.rateDist::mean              3.094067                       # Number of instructions fetched each cycle (Total)
system.cpu.fetch.rateDist::stdev             3.578378                       # Number of instructions fetched each cycle (Total)
system.cpu.fetch.rateDist::underflows               0      0.00%      0.00% # Number of instructions fetched each cycle (Total)
system.cpu.fetch.rateDist::0                 25133491     50.60%     50.60% # Number of instructions fetched each cycle (Total)
system.cpu.fetch.rateDist::1                  2546284      5.13%     55.73% # Number of instructions fetched each cycle (Total)
system.cpu.fetch.rateDist::2                   809061      1.63%     57.36% # Number of instructions fetched each cycle (Total)
system.cpu.fetch.rateDist::3                   809158      1.63%     58.99% # Number of instructions fetched each cycle (Total)
system.cpu.fetch.rateDist::4                  1843199      3.71%     62.70% # Number of instructions fetched each cycle (Total)
system.cpu.fetch.rateDist::5                  1016715      2.05%     64.75% # Number of instructions fetched each cycle (Total)
system.cpu.fetch.rateDist::6                  2298384      4.63%     69.38% # Number of instructions fetched each cycle (Total)
system.cpu.fetch.rateDist::7                   848609      1.71%     71.08% # Number of instructions fetched each cycle (Total)
system.cpu.fetch.rateDist::8                 14361570     28.92%    100.00% # Number of instructions fetched each cycle (Total)
system.cpu.fetch.rateDist::overflows                0      0.00%    100.00% # Number of instructions fetched each cycle (Total)
system.cpu.fetch.rateDist::min_value                0                       # Number of instructions fetched each cycle (Total)
system.cpu.fetch.rateDist::max_value                8                       # Number of instructions fetched each cycle (Total)
system.cpu.fetch.rateDist::total             49666471                       # Number of instructions fetched each cycle (Total)
system.cpu.fp_regfile_reads                  12481992                       # number of floating regfile reads
system.cpu.fp_regfile_writes                 14177624                       # number of floating regfile writes
system.cpu.idleCycles                          113747                       # Total number of cycles that the CPU has spent unscheduled due to idling
system.cpu.iew.branchMispredicts               615887                       # Number of branch mispredicts detected at execute
system.cpu.iew.exec_branches                  8563843                       # Number of branches executed
system.cpu.iew.exec_nop                             0                       # number of nop insts executed
system.cpu.iew.exec_rate                     2.709864                       # Inst execution rate
system.cpu.iew.exec_refs                     52909569                       # number of memory reference insts executed
system.cpu.iew.exec_stores                   11279878                       # Number of stores executed
system.cpu.iew.exec_swp                             0                       # number of swp insts executed
system.cpu.iew.iewBlockCycles                 1954638                       # Number of cycles IEW is blocking
system.cpu.iew.iewDispLoadInsts              42911107                       # Number of dispatched load instructions
system.cpu.iew.iewDispNonSpecInsts              22609                       # Number of dispatched non-speculative instructions
system.cpu.iew.iewDispSquashedInsts             22443                       # Number of squashed instructions skipped by dispatch
system.cpu.iew.iewDispStoreInsts             11965254                       # Number of dispatched store instructions
system.cpu.iew.iewDispatchedInsts           142436752                       # Number of instructions dispatched to IQ
system.cpu.iew.iewExecLoadInsts              41629691                       # Number of load instructions executed
system.cpu.iew.iewExecSquashedInsts           1251633                       # Number of squashed instructions skipped in execute
system.cpu.iew.iewExecutedInsts             134897628                       # Number of executed instructions
system.cpu.iew.iewIQFullEvents                   1354                       # Number of times the IQ has become full, causing a stall
system.cpu.iew.iewIdleCycles                        0                       # Number of cycles IEW is idle
system.cpu.iew.iewLSQFullEvents                 27089                       # Number of times the LSQ has become full, causing a stall
system.cpu.iew.iewSquashCycles                 524174                       # Number of cycles IEW is squashing
system.cpu.iew.iewUnblockCycles                 28420                       # Number of cycles IEW is unblocking
system.cpu.iew.lsq.thread0.blockedLoads             0                       # Number of blocked loads due to partial load-store forwarding
system.cpu.iew.lsq.thread0.cacheBlocked          2269                       # Number of times an access to memory failed due to the cache being blocked
system.cpu.iew.lsq.thread0.forwLoads         17828294                       # Number of loads that had data forwarded from stores
system.cpu.iew.lsq.thread0.ignoredResponses        24272                       # Number of memory responses ignored because the instruction is squashed
system.cpu.iew.lsq.thread0.invAddrLoads             0                       # Number of loads ignored due to an invalid address
system.cpu.iew.lsq.thread0.invAddrSwpfs             0                       # Number of software prefetches ignored due to an invalid address
system.cpu.iew.lsq.thread0.memOrderViolation        12084                       # Number of memory ordering violations
system.cpu.iew.lsq.thread0.rescheduledLoads         1372                       # Number of loads that were rescheduled
system.cpu.iew.lsq.thread0.squashedLoads      3435758                       # Number of loads squashed
system.cpu.iew.lsq.thread0.squashedStores      1021373                       # Number of stores squashed
system.cpu.iew.memOrderViolationEvents          12084                       # Number of memory order violations
system.cpu.iew.predictedNotTakenIncorrect       426962                       # Number of branches that were predicted not taken incorrectly
system.cpu.iew.predictedTakenIncorrect         188925                       # Number of branches that were predicted taken incorrectly
system.cpu.iew.wb_consumers                 134083197                       # num instructions consuming a value
system.cpu.iew.wb_count                     134100307                       # cumulative count of insts written-back
system.cpu.iew.wb_fanout                     0.770663                       # average fanout of values written-back
system.cpu.iew.wb_producers                 103332925                       # num instructions producing a value
system.cpu.iew.wb_rate                       2.693847                       # insts written-back per cycle
system.cpu.iew.wb_sent                      134457121                       # cumulative count of insts sent to commit
system.cpu.int_regfile_reads                205277127                       # number of integer regfile reads
system.cpu.int_regfile_writes               101284343                       # number of integer regfile writes
system.cpu.ipc                               1.515385                       # IPC: Instructions Per Cycle
system.cpu.ipc_total                         1.515385                       # IPC: Total IPC of All Threads
system.cpu.iq.FU_type_0::No_OpClass            575278      0.42%      0.42% # Type of FU issued
system.cpu.iq.FU_type_0::IntAlu              72473714     53.23%     53.65% # Type of FU issued
system.cpu.iq.FU_type_0::IntMult                41557      0.03%     53.68% # Type of FU issued
system.cpu.iq.FU_type_0::IntDiv                590909      0.43%     54.12% # Type of FU issued
system.cpu.iq.FU_type_0::FloatAdd             5437205      3.99%     58.11% # Type of FU issued
system.cpu.iq.FU_type_0::FloatCmp                   0      0.00%     58.11% # Type of FU issued
system.cpu.iq.FU_type_0::FloatCvt                1153      0.00%     58.11% # Type of FU issued
system.cpu.iq.FU_type_0::FloatMult                  0      0.00%     58.11% # Type of FU issued
system.cpu.iq.FU_type_0::FloatMultAcc               0      0.00%     58.11% # Type of FU issued
system.cpu.iq.FU_type_0::FloatDiv                   0      0.00%     58.11% # Type of FU issued
system.cpu.iq.FU_type_0::FloatMisc                  0      0.00%     58.11% # Type of FU issued
system.cpu.iq.FU_type_0::FloatSqrt                  0      0.00%     58.11% # Type of FU issued
system.cpu.iq.FU_type_0::SimdAdd                    0      0.00%     58.11% # Type of FU issued
system.cpu.iq.FU_type_0::SimdAddAcc                 0      0.00%     58.11% # Type of FU issued
system.cpu.iq.FU_type_0::SimdAlu                59490      0.04%     58.16% # Type of FU issued
system.cpu.iq.FU_type_0::SimdCmp                    0      0.00%     58.16% # Type of FU issued
system.cpu.iq.FU_type_0::SimdCvt                79556      0.06%     58.21% # Type of FU issued
system.cpu.iq.FU_type_0::SimdMisc              217183      0.16%     58.37% # Type of FU issued
system.cpu.iq.FU_type_0::SimdMult                   0      0.00%     58.37% # Type of FU issued
system.cpu.iq.FU_type_0::SimdMultAcc                0      0.00%     58.37% # Type of FU issued
system.cpu.iq.FU_type_0::SimdShift                  0      0.00%     58.37% # Type of FU issued
system.cpu.iq.FU_type_0::SimdShiftAcc               0      0.00%     58.37% # Type of FU issued
system.cpu.iq.FU_type_0::SimdDiv                    0      0.00%     58.37% # Type of FU issued
system.cpu.iq.FU_type_0::SimdSqrt                   0      0.00%     58.37% # Type of FU issued
system.cpu.iq.FU_type_0::SimdFloatAdd         1642388      1.21%     59.58% # Type of FU issued
system.cpu.iq.FU_type_0::SimdFloatAlu               0      0.00%     59.58% # Type of FU issued
system.cpu.iq.FU_type_0::SimdFloatCmp               0      0.00%     59.58% # Type of FU issued
system.cpu.iq.FU_type_0::SimdFloatCvt           23483      0.02%     59.60% # Type of FU issued
system.cpu.iq.FU_type_0::SimdFloatDiv           19259      0.01%     59.61% # Type of FU issued
system.cpu.iq.FU_type_0::SimdFloatMisc              0      0.00%     59.61% # Type of FU issued
system.cpu.iq.FU_type_0::SimdFloatMult        1646220      1.21%     60.82% # Type of FU issued
system.cpu.iq.FU_type_0::SimdFloatMultAcc            0      0.00%     60.82% # Type of FU issued
system.cpu.iq.FU_type_0::SimdFloatSqrt              0      0.00%     60.82% # Type of FU issued
system.cpu.iq.FU_type_0::SimdReduceAdd              0      0.00%     60.82% # Type of FU issued
system.cpu.iq.FU_type_0::SimdReduceAlu              0      0.00%     60.82% # Type of FU issued
system.cpu.iq.FU_type_0::SimdReduceCmp              0      0.00%     60.82% # Type of FU issued
system.cpu.iq.FU_type_0::SimdFloatReduceAdd            0      0.00%     60.82% # Type of FU issued
system.cpu.iq.FU_type_0::SimdFloatReduceCmp            0      0.00%     60.82% # Type of FU issued
system.cpu.iq.FU_type_0::SimdAes                    0      0.00%     60.82% # Type of FU issued
system.cpu.iq.FU_type_0::SimdAesMix                 0      0.00%     60.82% # Type of FU issued
system.cpu.iq.FU_type_0::SimdSha1Hash               0      0.00%     60.82% # Type of FU issued
system.cpu.iq.FU_type_0::SimdSha1Hash2              0      0.00%     60.82% # Type of FU issued
system.cpu.iq.FU_type_0::SimdSha256Hash             0      0.00%     60.82% # Type of FU issued
system.cpu.iq.FU_type_0::SimdSha256Hash2            0      0.00%     60.82% # Type of FU issued
system.cpu.iq.FU_type_0::SimdShaSigma2              0      0.00%     60.82% # Type of FU issued
system.cpu.iq.FU_type_0::SimdShaSigma3              0      0.00%     60.82% # Type of FU issued
system.cpu.iq.FU_type_0::SimdPredAlu                0      0.00%     60.82% # Type of FU issued
system.cpu.iq.FU_type_0::MemRead             36748565     26.99%     87.81% # Type of FU issued
system.cpu.iq.FU_type_0::MemWrite             9714835      7.14%     94.95% # Type of FU issued
system.cpu.iq.FU_type_0::FloatMemRead         5228136      3.84%     98.79% # Type of FU issued
system.cpu.iq.FU_type_0::FloatMemWrite        1650330      1.21%    100.00% # Type of FU issued
system.cpu.iq.FU_type_0::IprAccess                  0      0.00%    100.00% # Type of FU issued
system.cpu.iq.FU_type_0::InstPrefetch               0      0.00%    100.00% # Type of FU issued
system.cpu.iq.FU_type_0::total              136149261                       # Type of FU issued
system.cpu.iq.fp_alu_accesses                16101268                       # Number of floating point alu accesses
system.cpu.iq.fp_inst_queue_reads            32200481                       # Number of floating instruction queue reads
system.cpu.iq.fp_inst_queue_wakeup_accesses     15838845                       # Number of floating instruction queue wakeup accesses
system.cpu.iq.fp_inst_queue_writes           18326616                       # Number of floating instruction queue writes
system.cpu.iq.fu_busy_cnt                     3654968                       # FU busy when requested
system.cpu.iq.fu_busy_rate                   0.026845                       # FU busy rate (busy events/executed inst)
system.cpu.iq.fu_full::No_OpClass                   0      0.00%      0.00% # attempts to use FU when none available
system.cpu.iq.fu_full::IntAlu                  854038     23.37%     23.37% # attempts to use FU when none available
system.cpu.iq.fu_full::IntMult                      0      0.00%     23.37% # attempts to use FU when none available
system.cpu.iq.fu_full::IntDiv                       0      0.00%     23.37% # attempts to use FU when none available
system.cpu.iq.fu_full::FloatAdd                     0      0.00%     23.37% # attempts to use FU when none available
system.cpu.iq.fu_full::FloatCmp                     0      0.00%     23.37% # attempts to use FU when none available
system.cpu.iq.fu_full::FloatCvt                     2      0.00%     23.37% # attempts to use FU when none available
system.cpu.iq.fu_full::FloatMult                    0      0.00%     23.37% # attempts to use FU when none available
system.cpu.iq.fu_full::FloatMultAcc                 0      0.00%     23.37% # attempts to use FU when none available
system.cpu.iq.fu_full::FloatDiv                     0      0.00%     23.37% # attempts to use FU when none available
system.cpu.iq.fu_full::FloatMisc                    0      0.00%     23.37% # attempts to use FU when none available
system.cpu.iq.fu_full::FloatSqrt                    0      0.00%     23.37% # attempts to use FU when none available
system.cpu.iq.fu_full::SimdAdd                      0      0.00%     23.37% # attempts to use FU when none available
system.cpu.iq.fu_full::SimdAddAcc                   0      0.00%     23.37% # attempts to use FU when none available
system.cpu.iq.fu_full::SimdAlu                     46      0.00%     23.37% # attempts to use FU when none available
system.cpu.iq.fu_full::SimdCmp                      0      0.00%     23.37% # attempts to use FU when none available
system.cpu.iq.fu_full::SimdCvt                      4      0.00%     23.37% # attempts to use FU when none available
system.cpu.iq.fu_full::SimdMisc                    38      0.00%     23.37% # attempts to use FU when none available
system.cpu.iq.fu_full::SimdMult                     0      0.00%     23.37% # attempts to use FU when none available
system.cpu.iq.fu_full::SimdMultAcc                  0      0.00%     23.37% # attempts to use FU when none available
system.cpu.iq.fu_full::SimdShift                    0      0.00%     23.37% # attempts to use FU when none available
system.cpu.iq.fu_full::SimdShiftAcc                 0      0.00%     23.37% # attempts to use FU when none available
system.cpu.iq.fu_full::SimdDiv                      0      0.00%     23.37% # attempts to use FU when none available
system.cpu.iq.fu_full::SimdSqrt                     0      0.00%     23.37% # attempts to use FU when none available
system.cpu.iq.fu_full::SimdFloatAdd                 0      0.00%     23.37% # attempts to use FU when none available
system.cpu.iq.fu_full::SimdFloatAlu                 0      0.00%     23.37% # attempts to use FU when none available
system.cpu.iq.fu_full::SimdFloatCmp                 0      0.00%     23.37% # attempts to use FU when none available
system.cpu.iq.fu_full::SimdFloatCvt                 0      0.00%     23.37% # attempts to use FU when none available
system.cpu.iq.fu_full::SimdFloatDiv                 0      0.00%     23.37% # attempts to use FU when none available
system.cpu.iq.fu_full::SimdFloatMisc                0      0.00%     23.37% # attempts to use FU when none available
system.cpu.iq.fu_full::SimdFloatMult                0      0.00%     23.37% # attempts to use FU when none available
system.cpu.iq.fu_full::SimdFloatMultAcc             0      0.00%     23.37% # attempts to use FU when none available
system.cpu.iq.fu_full::SimdFloatSqrt                0      0.00%     23.37% # attempts to use FU when none available
system.cpu.iq.fu_full::SimdReduceAdd                0      0.00%     23.37% # attempts to use FU when none available
system.cpu.iq.fu_full::SimdReduceAlu                0      0.00%     23.37% # attempts to use FU when none available
system.cpu.iq.fu_full::SimdReduceCmp                0      0.00%     23.37% # attempts to use FU when none available
system.cpu.iq.fu_full::SimdFloatReduceAdd            0      0.00%     23.37% # attempts to use FU when none available
system.cpu.iq.fu_full::SimdFloatReduceCmp            0      0.00%     23.37% # attempts to use FU when none available
system.cpu.iq.fu_full::SimdAes                      0      0.00%     23.37% # attempts to use FU when none available
system.cpu.iq.fu_full::SimdAesMix                   0      0.00%     23.37% # attempts to use FU when none available
system.cpu.iq.fu_full::SimdSha1Hash                 0      0.00%     23.37% # attempts to use FU when none available
system.cpu.iq.fu_full::SimdSha1Hash2                0      0.00%     23.37% # attempts to use FU when none available
system.cpu.iq.fu_full::SimdSha256Hash               0      0.00%     23.37% # attempts to use FU when none available
system.cpu.iq.fu_full::SimdSha256Hash2              0      0.00%     23.37% # attempts to use FU when none available
system.cpu.iq.fu_full::SimdShaSigma2                0      0.00%     23.37% # attempts to use FU when none available
system.cpu.iq.fu_full::SimdShaSigma3                0      0.00%     23.37% # attempts to use FU when none available
system.cpu.iq.fu_full::SimdPredAlu                  0      0.00%     23.37% # attempts to use FU when none available
system.cpu.iq.fu_full::MemRead                2786753     76.25%     99.61% # attempts to use FU when none available
system.cpu.iq.fu_full::MemWrite                 11679      0.32%     99.93% # attempts to use FU when none available
system.cpu.iq.fu_full::FloatMemRead              1502      0.04%     99.98% # attempts to use FU when none available
system.cpu.iq.fu_full::FloatMemWrite              906      0.02%    100.00% # attempts to use FU when none available
system.cpu.iq.fu_full::IprAccess                    0      0.00%    100.00% # attempts to use FU when none available
system.cpu.iq.fu_full::InstPrefetch                 0      0.00%    100.00% # attempts to use FU when none available
system.cpu.iq.int_alu_accesses              123127683                       # Number of integer alu accesses
system.cpu.iq.int_inst_queue_reads          293570189                       # Number of integer instruction queue reads
system.cpu.iq.int_inst_queue_wakeup_accesses    118261462                       # Number of integer instruction queue wakeup accesses
system.cpu.iq.int_inst_queue_writes         141066324                       # Number of integer instruction queue writes
system.cpu.iq.iqInstsAdded                  142369316                       # Number of instructions added to the IQ (excludes non-spec)
system.cpu.iq.iqInstsIssued                 136149261                       # Number of instructions issued
system.cpu.iq.iqNonSpecInstsAdded               67436                       # Number of non-speculative instructions added to the IQ
system.cpu.iq.iqSquashedInstsExamined        16944697                       # Number of squashed instructions iterated over during squash; mainly for profiling
system.cpu.iq.iqSquashedInstsIssued            150709                       # Number of squashed instructions issued
system.cpu.iq.iqSquashedNonSpecRemoved          67094                       # Number of squashed non-spec instructions that were removed
system.cpu.iq.iqSquashedOperandsExamined     27232552                       # Number of squashed operands that are examined and possibly removed from graph
system.cpu.iq.issued_per_cycle::samples      49666471                       # Number of insts issued each cycle
system.cpu.iq.issued_per_cycle::mean         2.741271                       # Number of insts issued each cycle
system.cpu.iq.issued_per_cycle::stdev        2.205765                       # Number of insts issued each cycle
system.cpu.iq.issued_per_cycle::underflows            0      0.00%      0.00% # Number of insts issued each cycle
system.cpu.iq.issued_per_cycle::0            10744647     21.63%     21.63% # Number of insts issued each cycle
system.cpu.iq.issued_per_cycle::1             7503762     15.11%     36.74% # Number of insts issued each cycle
system.cpu.iq.issued_per_cycle::2             5954275     11.99%     48.73% # Number of insts issued each cycle
system.cpu.iq.issued_per_cycle::3             7613986     15.33%     64.06% # Number of insts issued each cycle
system.cpu.iq.issued_per_cycle::4             5350224     10.77%     74.83% # Number of insts issued each cycle
system.cpu.iq.issued_per_cycle::5             5467194     11.01%     85.84% # Number of insts issued each cycle
system.cpu.iq.issued_per_cycle::6             4590355      9.24%     95.08% # Number of insts issued each cycle
system.cpu.iq.issued_per_cycle::7             1920229      3.87%     98.95% # Number of insts issued each cycle
system.cpu.iq.issued_per_cycle::8              521799      1.05%    100.00% # Number of insts issued each cycle
system.cpu.iq.issued_per_cycle::overflows            0      0.00%    100.00% # Number of insts issued each cycle
system.cpu.iq.issued_per_cycle::min_value            0                       # Number of insts issued each cycle
system.cpu.iq.issued_per_cycle::max_value            8                       # Number of insts issued each cycle
system.cpu.iq.issued_per_cycle::total        49666471                       # Number of insts issued each cycle
system.cpu.iq.rate                           2.735007                       # Inst issue rate
system.cpu.iq.vec_alu_accesses                      0                       # Number of vector alu accesses
system.cpu.iq.vec_inst_queue_reads                  0                       # Number of vector instruction queue reads
system.cpu.iq.vec_inst_queue_wakeup_accesses            0                       # Number of vector instruction queue wakeup accesses
system.cpu.iq.vec_inst_queue_writes                 0                       # Number of vector instruction queue writes
system.cpu.itb.rdAccesses                           0                       # TLB accesses on read requests
system.cpu.itb.rdMisses                             0                       # TLB misses on read requests
system.cpu.itb.wrAccesses                     8389191                       # TLB accesses on write requests
system.cpu.itb.wrMisses                           327                       # TLB misses on write requests
system.cpu.memDep0.conflictingLoads          18301015                       # Number of conflicting loads.
system.cpu.memDep0.conflictingStores          5416684                       # Number of conflicting stores.
system.cpu.memDep0.insertedLoads             42911107                       # Number of loads inserted to the mem dependence unit.
system.cpu.memDep0.insertedStores            11965254                       # Number of stores inserted to the mem dependence unit.
system.cpu.misc_regfile_reads                70136404                       # number of misc regfile reads
system.cpu.misc_regfile_writes                    143                       # number of misc regfile writes
system.cpu.numCycles                         49780218                       # number of cpu cycles simulated
system.cpu.numWorkItemsCompleted                    0                       # number of work items this cpu completed
system.cpu.numWorkItemsStarted                      0                       # number of work items this cpu started
system.cpu.rename.BlockCycles                 2017189                       # Number of cycles rename is blocking
system.cpu.rename.CommittedMaps             143738378                       # Number of HB maps that are committed
system.cpu.rename.IQFullEvents                 362395                       # Number of times rename has blocked due to IQ full
system.cpu.rename.IdleCycles                 13029577                       # Number of cycles rename is idle
system.cpu.rename.LQFullEvents               12155560                       # Number of times rename has blocked due to LQ full
system.cpu.rename.ROBFullEvents                  7818                       # Number of times rename has blocked due to ROB full
system.cpu.rename.RenameLookups             369014664                       # Number of register rename lookups that rename has made
system.cpu.rename.RenamedInsts              146603144                       # Number of instructions processed by rename
system.cpu.rename.RenamedOperands           168710637                       # Number of destination operands rename has renamed
system.cpu.rename.RunCycles                  19091870                       # Number of cycles rename is running
system.cpu.rename.SQFullEvents                1209678                       # Number of times rename has blocked due to SQ full
system.cpu.rename.SquashCycles                 524174                       # Number of cycles rename is squashing
system.cpu.rename.UnblockCycles              14993528                       # Number of cycles rename is unblocking
system.cpu.rename.UndoneMaps                 24972259                       # Number of HB maps that are undone due to squashing
system.cpu.rename.fp_rename_lookups          13752602                       # Number of floating rename lookups
system.cpu.rename.int_rename_lookups        226487853                       # Number of integer rename lookups
system.cpu.rename.serializeStallCycles          10133                       # count of cycles rename stalled for serializing inst
system.cpu.rename.serializingInsts                832                       # count of serializing insts renamed
system.cpu.rename.skidInsts                  27359028                       # count of insts added to the skid buffer
system.cpu.rename.tempSerializingInsts            893                       # count of temporary serializing insts renamed
system.cpu.rob.rob_reads                    182406626                       # The number of ROB reads
system.cpu.rob.rob_writes                   287346556                       # The number of ROB writes
system.cpu.timesIdled                           36339                       # Number of times that the entire CPU went into an idle state and unscheduled itself
system.cpu.workload.numSyscalls                   203                       # Number of system calls
system.membus.snoop_filter.hit_multi_requests            0                       # Number of requests hitting in the snoop filter with multiple (>1) holders of the requested data.
system.membus.snoop_filter.hit_multi_snoops            0                       # Number of snoops hitting in the snoop filter with multiple (>1) holders of the requested data.
system.membus.snoop_filter.hit_single_requests            0                       # Number of requests hitting in the snoop filter with a single holder of the requested data.
system.membus.snoop_filter.hit_single_snoops            0                       # Number of snoops hitting in the snoop filter with a single holder of the requested data.
system.membus.snoop_filter.tot_requests         16997                       # Total number of requests made to the snoop filter.
system.membus.snoop_filter.tot_snoops               0                       # Total number of snoops made to the snoop filter.
system.tol2bus.snoop_filter.hit_multi_requests          233                       # Number of requests hitting in the snoop filter with multiple (>1) holders of the requested data.
system.tol2bus.snoop_filter.hit_multi_snoops            0                       # Number of snoops hitting in the snoop filter with multiple (>1) holders of the requested data.
system.tol2bus.snoop_filter.hit_single_requests       402642                       # Number of requests hitting in the snoop filter with a single holder of the requested data.
system.tol2bus.snoop_filter.hit_single_snoops            0                       # Number of snoops hitting in the snoop filter with a single holder of the requested data.
system.tol2bus.snoop_filter.tot_requests       807281                       # Total number of requests made to the snoop filter.
system.tol2bus.snoop_filter.tot_snoops              0                       # Total number of snoops made to the snoop filter.
system.membus.pwrStateResidencyTicks::UNDEFINED  49780217000                       # Cumulative time (in ticks) in various power states
system.membus.trans_dist::ReadResp               6089                       # Transaction distribution
system.membus.trans_dist::ReadExReq             10908                       # Transaction distribution
system.membus.trans_dist::ReadExResp            10908                       # Transaction distribution
system.membus.trans_dist::ReadSharedReq          6089                       # Transaction distribution
system.membus.pkt_count_system.l2.mem_side::system.mem_ctrls.port        33994                       # Packet count per connected master and slave (bytes)
system.membus.pkt_count_system.l2.mem_side::total        33994                       # Packet count per connected master and slave (bytes)
system.membus.pkt_count::total                  33994                       # Packet count per connected master and slave (bytes)
system.membus.pkt_size_system.l2.mem_side::system.mem_ctrls.port      1087808                       # Cumulative packet size per connected master and slave (bytes)
system.membus.pkt_size_system.l2.mem_side::total      1087808                       # Cumulative packet size per connected master and slave (bytes)
system.membus.pkt_size::total                 1087808                       # Cumulative packet size per connected master and slave (bytes)
system.membus.snoops                                0                       # Total snoops (count)
system.membus.snoopTraffic                          0                       # Total snoop traffic (bytes)
system.membus.snoop_fanout::samples             16997                       # Request fanout histogram
system.membus.snoop_fanout::mean                    0                       # Request fanout histogram
system.membus.snoop_fanout::stdev                   0                       # Request fanout histogram
system.membus.snoop_fanout::underflows              0      0.00%      0.00% # Request fanout histogram
system.membus.snoop_fanout::0                   16997    100.00%    100.00% # Request fanout histogram
system.membus.snoop_fanout::1                       0      0.00%    100.00% # Request fanout histogram
system.membus.snoop_fanout::overflows               0      0.00%    100.00% # Request fanout histogram
system.membus.snoop_fanout::min_value               0                       # Request fanout histogram
system.membus.snoop_fanout::max_value               0                       # Request fanout histogram
system.membus.snoop_fanout::total               16997                       # Request fanout histogram
system.membus.reqLayer2.occupancy            16997000                       # Layer occupancy (ticks)
system.membus.reqLayer2.utilization               0.0                       # Layer utilization (%)
system.membus.respLayer1.occupancy           89606750                       # Layer occupancy (ticks)
system.membus.respLayer1.utilization              0.2                       # Layer utilization (%)
system.tol2bus.pwrStateResidencyTicks::UNDEFINED  49780217000                       # Cumulative time (in ticks) in various power states
system.tol2bus.trans_dist::ReadResp            383958                       # Transaction distribution
system.tol2bus.trans_dist::WritebackDirty       229802                       # Transaction distribution
system.tol2bus.trans_dist::WritebackClean       159978                       # Transaction distribution
system.tol2bus.trans_dist::CleanEvict           12862                       # Transaction distribution
system.tol2bus.trans_dist::ReadExReq            20680                       # Transaction distribution
system.tol2bus.trans_dist::ReadExResp           20680                       # Transaction distribution
system.tol2bus.trans_dist::ReadCleanReq        160951                       # Transaction distribution
system.tol2bus.trans_dist::ReadSharedReq       223008                       # Transaction distribution
system.tol2bus.pkt_count_system.cpu.icache.mem_side::system.l2.cpu_side       481879                       # Packet count per connected master and slave (bytes)
system.tol2bus.pkt_count_system.cpu.dcache.mem_side::system.l2.cpu_side       730040                       # Packet count per connected master and slave (bytes)
system.tol2bus.pkt_count::total               1211919                       # Packet count per connected master and slave (bytes)
system.tol2bus.pkt_size_system.cpu.icache.mem_side::system.l2.cpu_side     20539392                       # Cumulative packet size per connected master and slave (bytes)
system.tol2bus.pkt_size_system.cpu.dcache.mem_side::system.l2.cpu_side     30303360                       # Cumulative packet size per connected master and slave (bytes)
system.tol2bus.pkt_size::total               50842752                       # Cumulative packet size per connected master and slave (bytes)
system.tol2bus.snoops                               0                       # Total snoops (count)
system.tol2bus.snoopTraffic                         0                       # Total snoop traffic (bytes)
system.tol2bus.snoop_fanout::samples           404639                       # Request fanout histogram
system.tol2bus.snoop_fanout::mean            0.000576                       # Request fanout histogram
system.tol2bus.snoop_fanout::stdev           0.023989                       # Request fanout histogram
system.tol2bus.snoop_fanout::underflows             0      0.00%      0.00% # Request fanout histogram
system.tol2bus.snoop_fanout::0                 404406     99.94%     99.94% # Request fanout histogram
system.tol2bus.snoop_fanout::1                    233      0.06%    100.00% # Request fanout histogram
system.tol2bus.snoop_fanout::2                      0      0.00%    100.00% # Request fanout histogram
system.tol2bus.snoop_fanout::3                      0      0.00%    100.00% # Request fanout histogram
system.tol2bus.snoop_fanout::4                      0      0.00%    100.00% # Request fanout histogram
system.tol2bus.snoop_fanout::overflows              0      0.00%    100.00% # Request fanout histogram
system.tol2bus.snoop_fanout::min_value              0                       # Request fanout histogram
system.tol2bus.snoop_fanout::max_value              1                       # Request fanout histogram
system.tol2bus.snoop_fanout::total             404639                       # Request fanout histogram
system.tol2bus.reqLayer0.occupancy         1586841000                       # Layer occupancy (ticks)
system.tol2bus.reqLayer0.utilization              3.2                       # Layer utilization (%)
system.tol2bus.respLayer1.occupancy         731066997                       # Layer occupancy (ticks)
system.tol2bus.respLayer1.utilization             1.5                       # Layer utilization (%)
system.tol2bus.respLayer0.occupancy         482858991                       # Layer occupancy (ticks)
system.tol2bus.respLayer0.utilization             1.0                       # Layer utilization (%)
system.voltage_domain.voltage                       1                       # Voltage in Volts
system.clk_domain.clock                          1000                       # Clock period in ticks
system.l2.pwrStateResidencyTicks::UNDEFINED  49780217000                       # Cumulative time (in ticks) in various power states
system.l2.demand_hits::.cpu.inst               159221                       # number of demand (read+write) hits
system.l2.demand_hits::.cpu.data               228419                       # number of demand (read+write) hits
system.l2.demand_hits::total                   387640                       # number of demand (read+write) hits
system.l2.overall_hits::.cpu.inst              159221                       # number of overall hits
system.l2.overall_hits::.cpu.data              228419                       # number of overall hits
system.l2.overall_hits::total                  387640                       # number of overall hits
system.l2.demand_misses::.cpu.inst               1730                       # number of demand (read+write) misses
system.l2.demand_misses::.cpu.data              15269                       # number of demand (read+write) misses
system.l2.demand_misses::total                  16999                       # number of demand (read+write) misses
system.l2.overall_misses::.cpu.inst              1730                       # number of overall misses
system.l2.overall_misses::.cpu.data             15269                       # number of overall misses
system.l2.overall_misses::total                 16999                       # number of overall misses
system.l2.demand_miss_latency::.cpu.inst    169611000                       # number of demand (read+write) miss cycles
system.l2.demand_miss_latency::.cpu.data   1466056000                       # number of demand (read+write) miss cycles
system.l2.demand_miss_latency::total       1635667000                       # number of demand (read+write) miss cycles
system.l2.overall_miss_latency::.cpu.inst    169611000                       # number of overall miss cycles
system.l2.overall_miss_latency::.cpu.data   1466056000                       # number of overall miss cycles
system.l2.overall_miss_latency::total      1635667000                       # number of overall miss cycles
system.l2.demand_accesses::.cpu.inst           160951                       # number of demand (read+write) accesses
system.l2.demand_accesses::.cpu.data           243688                       # number of demand (read+write) accesses
system.l2.demand_accesses::total               404639                       # number of demand (read+write) accesses
system.l2.overall_accesses::.cpu.inst          160951                       # number of overall (read+write) accesses
system.l2.overall_accesses::.cpu.data          243688                       # number of overall (read+write) accesses
system.l2.overall_accesses::total              404639                       # number of overall (read+write) accesses
system.l2.demand_miss_rate::.cpu.inst        0.010749                       # miss rate for demand accesses
system.l2.demand_miss_rate::.cpu.data        0.062658                       # miss rate for demand accesses
system.l2.demand_miss_rate::total            0.042010                       # miss rate for demand accesses
system.l2.overall_miss_rate::.cpu.inst       0.010749                       # miss rate for overall accesses
system.l2.overall_miss_rate::.cpu.data       0.062658                       # miss rate for overall accesses
system.l2.overall_miss_rate::total           0.042010                       # miss rate for overall accesses
system.l2.demand_avg_miss_latency::.cpu.inst 98041.040462                       # average overall miss latency
system.l2.demand_avg_miss_latency::.cpu.data 96015.194184                       # average overall miss latency
system.l2.demand_avg_miss_latency::total 96221.365963                       # average overall miss latency
system.l2.overall_avg_miss_latency::.cpu.inst 98041.040462                       # average overall miss latency
system.l2.overall_avg_miss_latency::.cpu.data 96015.194184                       # average overall miss latency
system.l2.overall_avg_miss_latency::total 96221.365963                       # average overall miss latency
system.l2.blocked_cycles::no_mshrs                  0                       # number of cycles access was blocked
system.l2.blocked_cycles::no_targets                0                       # number of cycles access was blocked
system.l2.blocked::no_mshrs                         0                       # number of cycles access was blocked
system.l2.blocked::no_targets                       0                       # number of cycles access was blocked
system.l2.avg_blocked_cycles::no_mshrs            nan                       # average number of cycles each access was blocked
system.l2.avg_blocked_cycles::no_targets          nan                       # average number of cycles each access was blocked
system.l2.demand_mshr_hits::.cpu.data               1                       # number of demand (read+write) MSHR hits
system.l2.demand_mshr_hits::total                   1                       # number of demand (read+write) MSHR hits
system.l2.overall_mshr_hits::.cpu.data              1                       # number of overall MSHR hits
system.l2.overall_mshr_hits::total                  1                       # number of overall MSHR hits
system.l2.demand_mshr_misses::.cpu.inst          1730                       # number of demand (read+write) MSHR misses
system.l2.demand_mshr_misses::.cpu.data         15268                       # number of demand (read+write) MSHR misses
system.l2.demand_mshr_misses::total             16998                       # number of demand (read+write) MSHR misses
system.l2.overall_mshr_misses::.cpu.inst         1730                       # number of overall MSHR misses
system.l2.overall_mshr_misses::.cpu.data        15268                       # number of overall MSHR misses
system.l2.overall_mshr_misses::total            16998                       # number of overall MSHR misses
system.l2.demand_mshr_miss_latency::.cpu.inst    135031000                       # number of demand (read+write) MSHR miss cycles
system.l2.demand_mshr_miss_latency::.cpu.data   1160624000                       # number of demand (read+write) MSHR miss cycles
system.l2.demand_mshr_miss_latency::total   1295655000                       # number of demand (read+write) MSHR miss cycles
system.l2.overall_mshr_miss_latency::.cpu.inst    135031000                       # number of overall MSHR miss cycles
system.l2.overall_mshr_miss_latency::.cpu.data   1160624000                       # number of overall MSHR miss cycles
system.l2.overall_mshr_miss_latency::total   1295655000                       # number of overall MSHR miss cycles
system.l2.demand_mshr_miss_rate::.cpu.inst     0.010749                       # mshr miss rate for demand accesses
system.l2.demand_mshr_miss_rate::.cpu.data     0.062654                       # mshr miss rate for demand accesses
system.l2.demand_mshr_miss_rate::total       0.042008                       # mshr miss rate for demand accesses
system.l2.overall_mshr_miss_rate::.cpu.inst     0.010749                       # mshr miss rate for overall accesses
system.l2.overall_mshr_miss_rate::.cpu.data     0.062654                       # mshr miss rate for overall accesses
system.l2.overall_mshr_miss_rate::total      0.042008                       # mshr miss rate for overall accesses
system.l2.demand_avg_mshr_miss_latency::.cpu.inst 78052.601156                       # average overall mshr miss latency
system.l2.demand_avg_mshr_miss_latency::.cpu.data 76016.767095                       # average overall mshr miss latency
system.l2.demand_avg_mshr_miss_latency::total 76223.967526                       # average overall mshr miss latency
system.l2.overall_avg_mshr_miss_latency::.cpu.inst 78052.601156                       # average overall mshr miss latency
system.l2.overall_avg_mshr_miss_latency::.cpu.data 76016.767095                       # average overall mshr miss latency
system.l2.overall_avg_mshr_miss_latency::total 76223.967526                       # average overall mshr miss latency
system.l2.replacements                              0                       # number of replacements
system.l2.WritebackDirty_hits::.writebacks       229802                       # number of WritebackDirty hits
system.l2.WritebackDirty_hits::total           229802                       # number of WritebackDirty hits
system.l2.WritebackDirty_accesses::.writebacks       229802                       # number of WritebackDirty accesses(hits+misses)
system.l2.WritebackDirty_accesses::total       229802                       # number of WritebackDirty accesses(hits+misses)
system.l2.WritebackClean_hits::.writebacks       159978                       # number of WritebackClean hits
system.l2.WritebackClean_hits::total           159978                       # number of WritebackClean hits
system.l2.WritebackClean_accesses::.writebacks       159978                       # number of WritebackClean accesses(hits+misses)
system.l2.WritebackClean_accesses::total       159978                       # number of WritebackClean accesses(hits+misses)
system.l2.ReadExReq_hits::.cpu.data              9772                       # number of ReadExReq hits
system.l2.ReadExReq_hits::total                  9772                       # number of ReadExReq hits
system.l2.ReadExReq_misses::.cpu.data           10908                       # number of ReadExReq misses
system.l2.ReadExReq_misses::total               10908                       # number of ReadExReq misses
system.l2.ReadExReq_miss_latency::.cpu.data   1034080000                       # number of ReadExReq miss cycles
system.l2.ReadExReq_miss_latency::total    1034080000                       # number of ReadExReq miss cycles
system.l2.ReadExReq_accesses::.cpu.data         20680                       # number of ReadExReq accesses(hits+misses)
system.l2.ReadExReq_accesses::total             20680                       # number of ReadExReq accesses(hits+misses)
system.l2.ReadExReq_miss_rate::.cpu.data     0.527466                       # miss rate for ReadExReq accesses
system.l2.ReadExReq_miss_rate::total         0.527466                       # miss rate for ReadExReq accesses
system.l2.ReadExReq_avg_miss_latency::.cpu.data 94800.146681                       # average ReadExReq miss latency
system.l2.ReadExReq_avg_miss_latency::total 94800.146681                       # average ReadExReq miss latency
system.l2.ReadExReq_mshr_misses::.cpu.data        10908                       # number of ReadExReq MSHR misses
system.l2.ReadExReq_mshr_misses::total          10908                       # number of ReadExReq MSHR misses
system.l2.ReadExReq_mshr_miss_latency::.cpu.data    815920000                       # number of ReadExReq MSHR miss cycles
system.l2.ReadExReq_mshr_miss_latency::total    815920000                       # number of ReadExReq MSHR miss cycles
system.l2.ReadExReq_mshr_miss_rate::.cpu.data     0.527466                       # mshr miss rate for ReadExReq accesses
system.l2.ReadExReq_mshr_miss_rate::total     0.527466                       # mshr miss rate for ReadExReq accesses
system.l2.ReadExReq_avg_mshr_miss_latency::.cpu.data 74800.146681                       # average ReadExReq mshr miss latency
system.l2.ReadExReq_avg_mshr_miss_latency::total 74800.146681                       # average ReadExReq mshr miss latency
system.l2.ReadCleanReq_hits::.cpu.inst         159221                       # number of ReadCleanReq hits
system.l2.ReadCleanReq_hits::total             159221                       # number of ReadCleanReq hits
system.l2.ReadCleanReq_misses::.cpu.inst         1730                       # number of ReadCleanReq misses
system.l2.ReadCleanReq_misses::total             1730                       # number of ReadCleanReq misses
system.l2.ReadCleanReq_miss_latency::.cpu.inst    169611000                       # number of ReadCleanReq miss cycles
system.l2.ReadCleanReq_miss_latency::total    169611000                       # number of ReadCleanReq miss cycles
system.l2.ReadCleanReq_accesses::.cpu.inst       160951                       # number of ReadCleanReq accesses(hits+misses)
system.l2.ReadCleanReq_accesses::total         160951                       # number of ReadCleanReq accesses(hits+misses)
system.l2.ReadCleanReq_miss_rate::.cpu.inst     0.010749                       # miss rate for ReadCleanReq accesses
system.l2.ReadCleanReq_miss_rate::total      0.010749                       # miss rate for ReadCleanReq accesses
system.l2.ReadCleanReq_avg_miss_latency::.cpu.inst 98041.040462                       # average ReadCleanReq miss latency
system.l2.ReadCleanReq_avg_miss_latency::total 98041.040462                       # average ReadCleanReq miss latency
system.l2.ReadCleanReq_mshr_misses::.cpu.inst         1730                       # number of ReadCleanReq MSHR misses
system.l2.ReadCleanReq_mshr_misses::total         1730                       # number of ReadCleanReq MSHR misses
system.l2.ReadCleanReq_mshr_miss_latency::.cpu.inst    135031000                       # number of ReadCleanReq MSHR miss cycles
system.l2.ReadCleanReq_mshr_miss_latency::total    135031000                       # number of ReadCleanReq MSHR miss cycles
system.l2.ReadCleanReq_mshr_miss_rate::.cpu.inst     0.010749                       # mshr miss rate for ReadCleanReq accesses
system.l2.ReadCleanReq_mshr_miss_rate::total     0.010749                       # mshr miss rate for ReadCleanReq accesses
system.l2.ReadCleanReq_avg_mshr_miss_latency::.cpu.inst 78052.601156                       # average ReadCleanReq mshr miss latency
system.l2.ReadCleanReq_avg_mshr_miss_latency::total 78052.601156                       # average ReadCleanReq mshr miss latency
system.l2.ReadSharedReq_hits::.cpu.data        218647                       # number of ReadSharedReq hits
system.l2.ReadSharedReq_hits::total            218647                       # number of ReadSharedReq hits
system.l2.ReadSharedReq_misses::.cpu.data         4361                       # number of ReadSharedReq misses
system.l2.ReadSharedReq_misses::total            4361                       # number of ReadSharedReq misses
system.l2.ReadSharedReq_miss_latency::.cpu.data    431976000                       # number of ReadSharedReq miss cycles
system.l2.ReadSharedReq_miss_latency::total    431976000                       # number of ReadSharedReq miss cycles
system.l2.ReadSharedReq_accesses::.cpu.data       223008                       # number of ReadSharedReq accesses(hits+misses)
system.l2.ReadSharedReq_accesses::total        223008                       # number of ReadSharedReq accesses(hits+misses)
system.l2.ReadSharedReq_miss_rate::.cpu.data     0.019555                       # miss rate for ReadSharedReq accesses
system.l2.ReadSharedReq_miss_rate::total     0.019555                       # miss rate for ReadSharedReq accesses
system.l2.ReadSharedReq_avg_miss_latency::.cpu.data 99054.345334                       # average ReadSharedReq miss latency
system.l2.ReadSharedReq_avg_miss_latency::total 99054.345334                       # average ReadSharedReq miss latency
system.l2.ReadSharedReq_mshr_hits::.cpu.data            1                       # number of ReadSharedReq MSHR hits
system.l2.ReadSharedReq_mshr_hits::total            1                       # number of ReadSharedReq MSHR hits
system.l2.ReadSharedReq_mshr_misses::.cpu.data         4360                       # number of ReadSharedReq MSHR misses
system.l2.ReadSharedReq_mshr_misses::total         4360                       # number of ReadSharedReq MSHR misses
system.l2.ReadSharedReq_mshr_miss_latency::.cpu.data    344704000                       # number of ReadSharedReq MSHR miss cycles
system.l2.ReadSharedReq_mshr_miss_latency::total    344704000                       # number of ReadSharedReq MSHR miss cycles
system.l2.ReadSharedReq_mshr_miss_rate::.cpu.data     0.019551                       # mshr miss rate for ReadSharedReq accesses
system.l2.ReadSharedReq_mshr_miss_rate::total     0.019551                       # mshr miss rate for ReadSharedReq accesses
system.l2.ReadSharedReq_avg_mshr_miss_latency::.cpu.data 79060.550459                       # average ReadSharedReq mshr miss latency
system.l2.ReadSharedReq_avg_mshr_miss_latency::total 79060.550459                       # average ReadSharedReq mshr miss latency
system.l2.tags.pwrStateResidencyTicks::UNDEFINED  49780217000                       # Cumulative time (in ticks) in various power states
system.l2.tags.tagsinuse                 10842.862592                       # Cycle average of tags in use
system.l2.tags.total_refs                      807046                       # Total number of references to valid blocks.
system.l2.tags.sampled_refs                     16997                       # Sample count of references to valid blocks.
system.l2.tags.avg_refs                     47.481673                       # Average number of references to valid blocks.
system.l2.tags.warmup_cycle                     86000                       # Cycle when the warmup percentage was hit.
system.l2.tags.occ_blocks::.cpu.inst      1487.727325                       # Average occupied blocks per requestor
system.l2.tags.occ_blocks::.cpu.data      9355.135267                       # Average occupied blocks per requestor
system.l2.tags.occ_percent::.cpu.inst        0.045402                       # Average percentage of cache occupancy
system.l2.tags.occ_percent::.cpu.data        0.285496                       # Average percentage of cache occupancy
system.l2.tags.occ_percent::total            0.330898                       # Average percentage of cache occupancy
system.l2.tags.occ_task_id_blocks::1024         16997                       # Occupied blocks per task id
system.l2.tags.age_task_id_blocks_1024::0           75                       # Occupied blocks per task id
system.l2.tags.age_task_id_blocks_1024::1            8                       # Occupied blocks per task id
system.l2.tags.age_task_id_blocks_1024::2          198                       # Occupied blocks per task id
system.l2.tags.age_task_id_blocks_1024::3         2659                       # Occupied blocks per task id
system.l2.tags.age_task_id_blocks_1024::4        14057                       # Occupied blocks per task id
system.l2.tags.occ_task_id_percent::1024     0.518707                       # Percentage of cache occupancy per task id
system.l2.tags.tag_accesses                   6473381                       # Number of tag accesses
system.l2.tags.data_accesses                  6473381                       # Number of data accesses
system.cpu_voltage_domain.voltage                   1                       # Voltage in Volts
system.mem_ctrls.pwrStateResidencyTicks::UNDEFINED  49780217000                       # Cumulative time (in ticks) in various power states
system.mem_ctrls.bytes_read::.cpu.inst         110656                       # Number of bytes read from this memory
system.mem_ctrls.bytes_read::.cpu.data         977152                       # Number of bytes read from this memory
system.mem_ctrls.bytes_read::total            1087808                       # Number of bytes read from this memory
system.mem_ctrls.bytes_inst_read::.cpu.inst       110656                       # Number of instructions bytes read from this memory
system.mem_ctrls.bytes_inst_read::total        110656                       # Number of instructions bytes read from this memory
system.mem_ctrls.num_reads::.cpu.inst            1729                       # Number of read requests responded to by this memory
system.mem_ctrls.num_reads::.cpu.data           15268                       # Number of read requests responded to by this memory
system.mem_ctrls.num_reads::total               16997                       # Number of read requests responded to by this memory
system.mem_ctrls.bw_read::.cpu.inst           2222891                       # Total read bandwidth from this memory (bytes/s)
system.mem_ctrls.bw_read::.cpu.data          19629324                       # Total read bandwidth from this memory (bytes/s)
system.mem_ctrls.bw_read::total              21852215                       # Total read bandwidth from this memory (bytes/s)
system.mem_ctrls.bw_inst_read::.cpu.inst      2222891                       # Instruction read bandwidth from this memory (bytes/s)
system.mem_ctrls.bw_inst_read::total          2222891                       # Instruction read bandwidth from this memory (bytes/s)
system.mem_ctrls.bw_total::.cpu.inst          2222891                       # Total bandwidth to/from this memory (bytes/s)
system.mem_ctrls.bw_total::.cpu.data         19629324                       # Total bandwidth to/from this memory (bytes/s)
system.mem_ctrls.bw_total::total             21852215                       # Total bandwidth to/from this memory (bytes/s)
system.mem_ctrls.avgPriority_.cpu.inst::samples      1729.00                       # Average QoS priority value for accepted requests
system.mem_ctrls.avgPriority_.cpu.data::samples     15268.00                       # Average QoS priority value for accepted requests
system.mem_ctrls.priorityMinLatency      0.000000018750                       # per QoS priority minimum request to response latency (s)
system.mem_ctrls.priorityMaxLatency      0.000000579500                       # per QoS priority maximum request to response latency (s)
system.mem_ctrls.numReadWriteTurnArounds            0                       # Number of turnarounds from READ to WRITE
system.mem_ctrls.numWriteReadTurnArounds            0                       # Number of turnarounds from WRITE to READ
system.mem_ctrls.numStayReadState               46739                       # Number of times bus staying in READ state
system.mem_ctrls.numStayWriteState                  0                       # Number of times bus staying in WRITE state
system.mem_ctrls.readReqs                       16997                       # Number of read requests accepted
system.mem_ctrls.writeReqs                          0                       # Number of write requests accepted
system.mem_ctrls.readBursts                     16997                       # Number of DRAM read bursts, including those serviced by the write queue
system.mem_ctrls.writeBursts                        0                       # Number of DRAM write bursts, including those merged in the write queue
system.mem_ctrls.servicedByWrQ                      0                       # Number of DRAM read bursts serviced by the write queue
system.mem_ctrls.mergedWrBursts                     0                       # Number of DRAM write bursts merged with an existing one
system.mem_ctrls.neitherReadNorWriteReqs            0                       # Number of requests that are neither read nor write
system.mem_ctrls.perBankRdBursts::0               969                       # Per bank write bursts
system.mem_ctrls.perBankRdBursts::1              1061                       # Per bank write bursts
system.mem_ctrls.perBankRdBursts::2              1043                       # Per bank write bursts
system.mem_ctrls.perBankRdBursts::3              1134                       # Per bank write bursts
system.mem_ctrls.perBankRdBursts::4              1277                       # Per bank write bursts
system.mem_ctrls.perBankRdBursts::5              1166                       # Per bank write bursts
system.mem_ctrls.perBankRdBursts::6              1027                       # Per bank write bursts
system.mem_ctrls.perBankRdBursts::7              1042                       # Per bank write bursts
system.mem_ctrls.perBankRdBursts::8              1109                       # Per bank write bursts
system.mem_ctrls.perBankRdBursts::9              1045                       # Per bank write bursts
system.mem_ctrls.perBankRdBursts::10              923                       # Per bank write bursts
system.mem_ctrls.perBankRdBursts::11             1085                       # Per bank write bursts
system.mem_ctrls.perBankRdBursts::12             1267                       # Per bank write bursts
system.mem_ctrls.perBankRdBursts::13             1065                       # Per bank write bursts
system.mem_ctrls.perBankRdBursts::14              919                       # Per bank write bursts
system.mem_ctrls.perBankRdBursts::15              865                       # Per bank write bursts
system.mem_ctrls.perBankWrBursts::0                 0                       # Per bank write bursts
system.mem_ctrls.perBankWrBursts::1                 0                       # Per bank write bursts
system.mem_ctrls.perBankWrBursts::2                 0                       # Per bank write bursts
system.mem_ctrls.perBankWrBursts::3                 0                       # Per bank write bursts
system.mem_ctrls.perBankWrBursts::4                 0                       # Per bank write bursts
system.mem_ctrls.perBankWrBursts::5                 0                       # Per bank write bursts
system.mem_ctrls.perBankWrBursts::6                 0                       # Per bank write bursts
system.mem_ctrls.perBankWrBursts::7                 0                       # Per bank write bursts
system.mem_ctrls.perBankWrBursts::8                 0                       # Per bank write bursts
system.mem_ctrls.perBankWrBursts::9                 0                       # Per bank write bursts
system.mem_ctrls.perBankWrBursts::10                0                       # Per bank write bursts
system.mem_ctrls.perBankWrBursts::11                0                       # Per bank write bursts
system.mem_ctrls.perBankWrBursts::12                0                       # Per bank write bursts
system.mem_ctrls.perBankWrBursts::13                0                       # Per bank write bursts
system.mem_ctrls.perBankWrBursts::14                0                       # Per bank write bursts
system.mem_ctrls.perBankWrBursts::15                0                       # Per bank write bursts
system.mem_ctrls.avgRdQLen                       1.03                       # Average read queue length when enqueuing
system.mem_ctrls.avgWrQLen                       0.00                       # Average write queue length when enqueuing
[...]
system.cpu.interrupts.clk_domain.clock          16000                       # Clock period in ticks
system.cpu.itb_walker_cache.pwrStateResidencyTicks::UNDEFINED  49780217000                       # Cumulative time (in ticks) in various power states
system.cpu.itb_walker_cache.blocked_cycles::no_mshrs            0                       # number of cycles access was blocked
system.cpu.itb_walker_cache.blocked_cycles::no_targets            0                       # number of cycles access was blocked
system.cpu.itb_walker_cache.blocked::no_mshrs            0                       # number of cycles access was blocked
system.cpu.itb_walker_cache.blocked::no_targets            0                       # number of cycles access was blocked
system.cpu.itb_walker_cache.avg_blocked_cycles::no_mshrs          nan                       # average number of cycles each access was blocked
system.cpu.itb_walker_cache.avg_blocked_cycles::no_targets          nan                       # average number of cycles each access was blocked
system.cpu.itb_walker_cache.replacements            0                       # number of replacements
system.cpu.itb_walker_cache.tags.pwrStateResidencyTicks::UNDEFINED  49780217000                       # Cumulative time (in ticks) in various power states
system.cpu.itb_walker_cache.tags.tagsinuse            0                       # Cycle average of tags in use
system.cpu.itb_walker_cache.tags.total_refs            0                       # Total number of references to valid blocks.
system.cpu.itb_walker_cache.tags.sampled_refs            0                       # Sample count of references to valid blocks.
system.cpu.itb_walker_cache.tags.avg_refs          nan                       # Average number of references to valid blocks.
system.cpu.itb_walker_cache.tags.warmup_cycle            0                       # Cycle when the warmup percentage was hit.
system.cpu.itb_walker_cache.tags.tag_accesses            0                       # Number of tag accesses
system.cpu.itb_walker_cache.tags.data_accesses            0                       # Number of data accesses
system.cpu.itb.walker.pwrStateResidencyTicks::UNDEFINED  49780217000                       # Cumulative time (in ticks) in various power states
system.cpu.dtb_walker_cache.pwrStateResidencyTicks::UNDEFINED  49780217000                       # Cumulative time (in ticks) in various power states
system.cpu.dtb_walker_cache.blocked_cycles::no_mshrs            0                       # number of cycles access was blocked
system.cpu.dtb_walker_cache.blocked_cycles::no_targets            0                       # number of cycles access was blocked
system.cpu.dtb_walker_cache.blocked::no_mshrs            0                       # number of cycles access was blocked
system.cpu.dtb_walker_cache.blocked::no_targets            0                       # number of cycles access was blocked
system.cpu.dtb_walker_cache.avg_blocked_cycles::no_mshrs          nan                       # average number of cycles each access was blocked
system.cpu.dtb_walker_cache.avg_blocked_cycles::no_targets          nan                       # average number of cycles each access was blocked
system.cpu.dtb_walker_cache.replacements            0                       # number of replacements
system.cpu.dtb_walker_cache.tags.pwrStateResidencyTicks::UNDEFINED  49780217000                       # Cumulative time (in ticks) in various power states
system.cpu.dtb_walker_cache.tags.tagsinuse            0                       # Cycle average of tags in use
system.cpu.dtb_walker_cache.tags.total_refs            0                       # Total number of references to valid blocks.
system.cpu.dtb_walker_cache.tags.sampled_refs            0                       # Sample count of references to valid blocks.
system.cpu.dtb_walker_cache.tags.avg_refs          nan                       # Average number of references to valid blocks.
system.cpu.dtb_walker_cache.tags.warmup_cycle            0                       # Cycle when the warmup percentage was hit.
system.cpu.dtb_walker_cache.tags.tag_accesses            0                       # Number of tag accesses
system.cpu.dtb_walker_cache.tags.data_accesses            0                       # Number of data accesses
system.cpu.dcache.pwrStateResidencyTicks::UNDEFINED  49780217000                       # Cumulative time (in ticks) in various power states
system.cpu.dcache.demand_hits::.cpu.data     34096483                       # number of demand (read+write) hits
system.cpu.dcache.demand_hits::total         34096483                       # number of demand (read+write) hits
system.cpu.dcache.overall_hits::.cpu.data     34096510                       # number of overall hits
system.cpu.dcache.overall_hits::total        34096510                       # number of overall hits
system.cpu.dcache.demand_misses::.cpu.data       639794                       # number of demand (read+write) misses
system.cpu.dcache.demand_misses::total         639794                       # number of demand (read+write) misses
system.cpu.dcache.overall_misses::.cpu.data       643267                       # number of overall misses
system.cpu.dcache.overall_misses::total        643267                       # number of overall misses
system.cpu.dcache.demand_miss_latency::.cpu.data  15358964998                       # number of demand (read+write) miss cycles
system.cpu.dcache.demand_miss_latency::total  15358964998                       # number of demand (read+write) miss cycles
system.cpu.dcache.overall_miss_latency::.cpu.data  15358964998                       # number of overall miss cycles
system.cpu.dcache.overall_miss_latency::total  15358964998                       # number of overall miss cycles
system.cpu.dcache.demand_accesses::.cpu.data     34736277                       # number of demand (read+write) accesses
system.cpu.dcache.demand_accesses::total     34736277                       # number of demand (read+write) accesses
system.cpu.dcache.overall_accesses::.cpu.data     34739777                       # number of overall (read+write) accesses
system.cpu.dcache.overall_accesses::total     34739777                       # number of overall (read+write) accesses
system.cpu.dcache.demand_miss_rate::.cpu.data     0.018419                       # miss rate for demand accesses
system.cpu.dcache.demand_miss_rate::total     0.018419                       # miss rate for demand accesses
system.cpu.dcache.overall_miss_rate::.cpu.data     0.018517                       # miss rate for overall accesses
system.cpu.dcache.overall_miss_rate::total     0.018517                       # miss rate for overall accesses
system.cpu.dcache.demand_avg_miss_latency::.cpu.data 24006.109776                       # average overall miss latency
system.cpu.dcache.demand_avg_miss_latency::total 24006.109776                       # average overall miss latency
system.cpu.dcache.overall_avg_miss_latency::.cpu.data 23876.500735                       # average overall miss latency
system.cpu.dcache.overall_avg_miss_latency::total 23876.500735                       # average overall miss latency
system.cpu.dcache.blocked_cycles::no_mshrs        54092                       # number of cycles access was blocked
system.cpu.dcache.blocked_cycles::no_targets           49                       # number of cycles access was blocked
system.cpu.dcache.blocked::no_mshrs              2454                       # number of cycles access was blocked
system.cpu.dcache.blocked::no_targets               4                       # number of cycles access was blocked
system.cpu.dcache.avg_blocked_cycles::no_mshrs    22.042380                       # average number of cycles each access was blocked
system.cpu.dcache.avg_blocked_cycles::no_targets    12.250000                       # average number of cycles each access was blocked
system.cpu.dcache.writebacks::.writebacks       229802                       # number of writebacks
system.cpu.dcache.writebacks::total            229802                       # number of writebacks
system.cpu.dcache.demand_mshr_hits::.cpu.data       399579                       # number of demand (read+write) MSHR hits
system.cpu.dcache.demand_mshr_hits::total       399579                       # number of demand (read+write) MSHR hits
system.cpu.dcache.overall_mshr_hits::.cpu.data       399579                       # number of overall MSHR hits
system.cpu.dcache.overall_mshr_hits::total       399579                       # number of overall MSHR hits
system.cpu.dcache.demand_mshr_misses::.cpu.data       240215                       # number of demand (read+write) MSHR misses
system.cpu.dcache.demand_mshr_misses::total       240215                       # number of demand (read+write) MSHR misses
system.cpu.dcache.overall_mshr_misses::.cpu.data       243688                       # number of overall MSHR misses
system.cpu.dcache.overall_mshr_misses::total       243688                       # number of overall MSHR misses
system.cpu.dcache.demand_mshr_miss_latency::.cpu.data   6784872998                       # number of demand (read+write) MSHR miss cycles
system.cpu.dcache.demand_mshr_miss_latency::total   6784872998                       # number of demand (read+write) MSHR miss cycles
system.cpu.dcache.overall_mshr_miss_latency::.cpu.data   7007740998                       # number of overall MSHR miss cycles
system.cpu.dcache.overall_mshr_miss_latency::total   7007740998                       # number of overall MSHR miss cycles
system.cpu.dcache.demand_mshr_miss_rate::.cpu.data     0.006915                       # mshr miss rate for demand accesses
system.cpu.dcache.demand_mshr_miss_rate::total     0.006915                       # mshr miss rate for demand accesses
system.cpu.dcache.overall_mshr_miss_rate::.cpu.data     0.007015                       # mshr miss rate for overall accesses
system.cpu.dcache.overall_mshr_miss_rate::total     0.007015                       # mshr miss rate for overall accesses
system.cpu.dcache.demand_avg_mshr_miss_latency::.cpu.data 28245.001345                       # average overall mshr miss latency
system.cpu.dcache.demand_avg_mshr_miss_latency::total 28245.001345                       # average overall mshr miss latency
system.cpu.dcache.overall_avg_mshr_miss_latency::.cpu.data 28757.021265                       # average overall mshr miss latency
system.cpu.dcache.overall_avg_mshr_miss_latency::total 28757.021265                       # average overall mshr miss latency
system.cpu.dcache.replacements                 242664                       # number of replacements
system.cpu.dcache.ReadReq_hits::.cpu.data     23173189                       # number of ReadReq hits
system.cpu.dcache.ReadReq_hits::total        23173189                       # number of ReadReq hits
system.cpu.dcache.ReadReq_misses::.cpu.data       619104                       # number of ReadReq misses
system.cpu.dcache.ReadReq_misses::total        619104                       # number of ReadReq misses
system.cpu.dcache.ReadReq_miss_latency::.cpu.data  14015642000                       # number of ReadReq miss cycles
system.cpu.dcache.ReadReq_miss_latency::total  14015642000                       # number of ReadReq miss cycles
system.cpu.dcache.ReadReq_accesses::.cpu.data     23792293                       # number of ReadReq accesses(hits+misses)
system.cpu.dcache.ReadReq_accesses::total     23792293                       # number of ReadReq accesses(hits+misses)
system.cpu.dcache.ReadReq_miss_rate::.cpu.data     0.026021                       # miss rate for ReadReq accesses
system.cpu.dcache.ReadReq_miss_rate::total     0.026021                       # miss rate for ReadReq accesses
system.cpu.dcache.ReadReq_avg_miss_latency::.cpu.data 22638.590608                       # average ReadReq miss latency
system.cpu.dcache.ReadReq_avg_miss_latency::total 22638.590608                       # average ReadReq miss latency
system.cpu.dcache.ReadReq_mshr_hits::.cpu.data       399569                       # number of ReadReq MSHR hits
system.cpu.dcache.ReadReq_mshr_hits::total       399569                       # number of ReadReq MSHR hits
system.cpu.dcache.ReadReq_mshr_misses::.cpu.data       219535                       # number of ReadReq MSHR misses
system.cpu.dcache.ReadReq_mshr_misses::total       219535                       # number of ReadReq MSHR misses
system.cpu.dcache.ReadReq_mshr_miss_latency::.cpu.data   5483358000                       # number of ReadReq MSHR miss cycles
system.cpu.dcache.ReadReq_mshr_miss_latency::total   5483358000                       # number of ReadReq MSHR miss cycles
system.cpu.dcache.ReadReq_mshr_miss_rate::.cpu.data     0.009227                       # mshr miss rate for ReadReq accesses
system.cpu.dcache.ReadReq_mshr_miss_rate::total     0.009227                       # mshr miss rate for ReadReq accesses
system.cpu.dcache.ReadReq_avg_mshr_miss_latency::.cpu.data 24977.147152                       # average ReadReq mshr miss latency
system.cpu.dcache.ReadReq_avg_mshr_miss_latency::total 24977.147152                       # average ReadReq mshr miss latency
system.cpu.dcache.WriteReq_hits::.cpu.data     10923294                       # number of WriteReq hits
system.cpu.dcache.WriteReq_hits::total       10923294                       # number of WriteReq hits
system.cpu.dcache.WriteReq_misses::.cpu.data        20690                       # number of WriteReq misses
system.cpu.dcache.WriteReq_misses::total        20690                       # number of WriteReq misses
system.cpu.dcache.WriteReq_miss_latency::.cpu.data   1343322998                       # number of WriteReq miss cycles
system.cpu.dcache.WriteReq_miss_latency::total   1343322998                       # number of WriteReq miss cycles
system.cpu.dcache.WriteReq_accesses::.cpu.data     10943984                       # number of WriteReq accesses(hits+misses)
system.cpu.dcache.WriteReq_accesses::total     10943984                       # number of WriteReq accesses(hits+misses)
system.cpu.dcache.WriteReq_miss_rate::.cpu.data     0.001891                       # miss rate for WriteReq accesses
system.cpu.dcache.WriteReq_miss_rate::total     0.001891                       # miss rate for WriteReq accesses
system.cpu.dcache.WriteReq_avg_miss_latency::.cpu.data 64926.196133                       # average WriteReq miss latency
system.cpu.dcache.WriteReq_avg_miss_latency::total 64926.196133                       # average WriteReq miss latency
system.cpu.dcache.WriteReq_mshr_hits::.cpu.data           10                       # number of WriteReq MSHR hits
system.cpu.dcache.WriteReq_mshr_hits::total           10                       # number of WriteReq MSHR hits
system.cpu.dcache.WriteReq_mshr_misses::.cpu.data        20680                       # number of WriteReq MSHR misses
system.cpu.dcache.WriteReq_mshr_misses::total        20680                       # number of WriteReq MSHR misses
system.cpu.dcache.WriteReq_mshr_miss_latency::.cpu.data   1301514998                       # number of WriteReq MSHR miss cycles
system.cpu.dcache.WriteReq_mshr_miss_latency::total   1301514998                       # number of WriteReq MSHR miss cycles
system.cpu.dcache.WriteReq_mshr_miss_rate::.cpu.data     0.001890                       # mshr miss rate for WriteReq accesses
system.cpu.dcache.WriteReq_mshr_miss_rate::total     0.001890                       # mshr miss rate for WriteReq accesses
system.cpu.dcache.WriteReq_avg_mshr_miss_latency::.cpu.data 62935.928337                       # average WriteReq mshr miss latency
system.cpu.dcache.WriteReq_avg_mshr_miss_latency::total 62935.928337                       # average WriteReq mshr miss latency
system.cpu.dcache.SoftPFReq_hits::.cpu.data           27                       # number of SoftPFReq hits
system.cpu.dcache.SoftPFReq_hits::total            27                       # number of SoftPFReq hits
system.cpu.dcache.SoftPFReq_misses::.cpu.data         3473                       # number of SoftPFReq misses
system.cpu.dcache.SoftPFReq_misses::total         3473                       # number of SoftPFReq misses
system.cpu.dcache.SoftPFReq_accesses::.cpu.data         3500                       # number of SoftPFReq accesses(hits+misses)
system.cpu.dcache.SoftPFReq_accesses::total         3500                       # number of SoftPFReq accesses(hits+misses)
system.cpu.dcache.SoftPFReq_miss_rate::.cpu.data     0.992286                       # miss rate for SoftPFReq accesses
system.cpu.dcache.SoftPFReq_miss_rate::total     0.992286                       # miss rate for SoftPFReq accesses
system.cpu.dcache.SoftPFReq_mshr_misses::.cpu.data         3473                       # number of SoftPFReq MSHR misses
system.cpu.dcache.SoftPFReq_mshr_misses::total         3473                       # number of SoftPFReq MSHR misses
system.cpu.dcache.SoftPFReq_mshr_miss_latency::.cpu.data    222868000                       # number of SoftPFReq MSHR miss cycles
system.cpu.dcache.SoftPFReq_mshr_miss_latency::total    222868000                       # number of SoftPFReq MSHR miss cycles
system.cpu.dcache.SoftPFReq_mshr_miss_rate::.cpu.data     0.992286                       # mshr miss rate for SoftPFReq accesses
system.cpu.dcache.SoftPFReq_mshr_miss_rate::total     0.992286                       # mshr miss rate for SoftPFReq accesses
system.cpu.dcache.SoftPFReq_avg_mshr_miss_latency::.cpu.data 64171.609559                       # average SoftPFReq mshr miss latency
system.cpu.dcache.SoftPFReq_avg_mshr_miss_latency::total 64171.609559                       # average SoftPFReq mshr miss latency
system.cpu.dcache.tags.pwrStateResidencyTicks::UNDEFINED  49780217000                       # Cumulative time (in ticks) in various power states
system.cpu.dcache.tags.tagsinuse          1022.551635                       # Cycle average of tags in use
system.cpu.dcache.tags.total_refs            34340198                       # Total number of references to valid blocks.
system.cpu.dcache.tags.sampled_refs            243688                       # Sample count of references to valid blocks.
system.cpu.dcache.tags.avg_refs            140.918708                       # Average number of references to valid blocks.
system.cpu.dcache.tags.warmup_cycle            223000                       # Cycle when the warmup percentage was hit.
system.cpu.dcache.tags.occ_blocks::.cpu.data  1022.551635                       # Average occupied blocks per requestor
system.cpu.dcache.tags.occ_percent::.cpu.data     0.998586                       # Average percentage of cache occupancy
system.cpu.dcache.tags.occ_percent::total     0.998586                       # Average percentage of cache occupancy
system.cpu.dcache.tags.occ_task_id_blocks::1024         1024                       # Occupied blocks per task id
system.cpu.dcache.tags.age_task_id_blocks_1024::0           54                       # Occupied blocks per task id
system.cpu.dcache.tags.age_task_id_blocks_1024::1          535                       # Occupied blocks per task id
system.cpu.dcache.tags.age_task_id_blocks_1024::2           50                       # Occupied blocks per task id
system.cpu.dcache.tags.age_task_id_blocks_1024::3           14                       # Occupied blocks per task id
system.cpu.dcache.tags.age_task_id_blocks_1024::4          371                       # Occupied blocks per task id
system.cpu.dcache.tags.occ_task_id_percent::1024            1                       # Percentage of cache occupancy per task id
system.cpu.dcache.tags.tag_accesses         278161904                       # Number of tag accesses
system.cpu.dcache.tags.data_accesses        278161904                       # Number of data accesses

---------- End Simulation Statistics   ----------
